reduced_peptide_TRP_ALA_PRO_direct


 33 35  0  0  0  0  0  0  0  0999 V2000
    4.4718    0.3694   -8.3856 C   0  0  0  0  0  0  0  0  0  0  0  0
    5.5140    0.2533   -7.7486 O   0  0  0  0  0  0  0  0  0  0  0  0
    3.8971    1.5927   -8.6833 N   0  0  0  0  0  0  0  0  0  0  0  0
    3.0084    1.6252   -9.1056 H   0  0  0  0  0  0  0  0  0  0  0  0
    3.7034   -0.8230   -8.9080 C   0  0  0  0  0  0  0  0  0  0  0  0
    2.2445   -0.7655   -8.4642 C   0  0  0  0  0  0  0  0  0  0  0  0
    0.8092   -2.5744   -6.6563 N   0  0  0  0  0  0  0  0  0  0  0  0
    0.7927   -2.8278   -8.0482 C   0  0  0  0  0  0  0  0  0  0  0  0
   -0.0538   -3.8377   -8.5251 C   0  0  0  0  0  0  0  0  0  0  0  0
   -0.1673   -4.1171   -9.8916 C   0  0  0  0  0  0  0  0  0  0  0  0
    0.5501   -3.3072  -10.7747 C   0  0  0  0  0  0  0  0  0  0  0  0
    0.6198   -3.3483  -12.1535 N   0  0  0  0  0  0  0  0  0  0  0  0
    1.4269   -2.3417  -12.6267 C   0  0  0  0  0  0  0  0  0  0  0  0
    1.8755   -1.6337  -11.5303 C   0  0  0  0  0  0  0  0  0  0  0  0
    1.3473   -2.2449  -10.3481 C   0  0  0  0  0  0  0  0  0  0  0  0
    1.4736   -1.9734   -8.9564 C   0  0  0  0  0  0  0  0  0  0  0  0
    0.3321   -3.1765   -6.0407 H   0  0  0  0  0  0  0  0  0  0  0  0
    1.2978   -1.7959   -6.3035 H   0  0  0  0  0  0  0  0  0  0  0  0
    0.1558   -4.0073  -12.7188 H   0  0  0  0  0  0  0  0  0  0  0  0
    4.5954    2.8289   -8.3773 C   0  0  0  0  0  0  0  0  0  0  0  0
    4.4260    3.2229   -6.9164 C   0  0  0  0  0  0  0  0  0  0  0  0
    5.7564    3.2068   -6.1946 C   0  0  0  0  0  0  0  0  0  0  0  0
    6.5781    4.1173   -6.2417 O   0  0  0  0  0  0  0  0  0  0  0  0
    5.9728    2.0557   -5.4487 N   0  0  0  0  0  0  0  0  0  0  0  0
    5.2591    1.3862   -5.3410 H   0  0  0  0  0  0  0  0  0  0  0  0
    7.2749    1.8576   -4.8291 C   0  0  0  0  0  0  0  0  0  0  0  0
    7.1851    1.1838   -3.4595 C   0  0  0  0  0  0  0  0  0  0  0  0
    8.6157    0.7730   -3.1877 C   0  0  0  0  0  0  0  0  0  0  0  0
    9.1370    0.3418   -4.5283 N   0  0  0  0  0  0  0  0  0  0  0  0
    8.2044    0.8888   -5.5871 C   0  0  0  0  0  0  0  0  0  0  0  0
    9.0111    1.5515   -6.6945 C   0  0  0  0  0  0  0  0  0  0  0  0
    9.1607   -0.6766   -4.5799 H   0  0  0  0  0  0  0  0  0  0  0  0
   10.0835    0.6940   -4.6718 H   0  0  0  0  0  0  0  0  0  0  0  0
  7  8  1  0  0  0
  8  9  2  0  0  0
  9 10  1  0  0  0
 10 11  2  0  0  0
 11 12  1  0  0  0
 12 13  1  0  0  0
 13 14  2  0  0  0
 14 15  1  0  0  0
 15 16  2  0  0  0
 16  6  1  0  0  0
  6  5  1  0  0  0
  5  1  1  0  0  0
  1  2  2  0  0  0
  1  3  1  0  0  0
  3 20  1  0  0  0
 20 21  1  0  0  0
 21 22  1  0  0  0
 22 23  2  0  0  0
 22 24  1  0  0  0
 26 24  1  0  0  0
 26 27  1  0  0  0
 27 28  1  0  0  0
 28 29  1  0  0  0
 29 30  1  0  0  0
 30 31  1  0  0  0
 16  8  1  0  0  0
 30 26  1  0  0  0
 15 11  1  0  0  0
  7 17  1  0  0  0
  7 18  1  0  0  0
 12 19  1  0  0  0
  3  4  1  0  0  0
 24 25  1  0  0  0
 29 32  1  0  0  0
 29 33  1  0  0  0
M  CHG 1  29   1
M  END
> <minimizedAffinity>
-7.39541

$$$$
reduced_peptide_TRP_ALA_PRO_direct


 33 35  0  0  0  0  0  0  0  0999 V2000
    3.8340    0.9184   -8.4021 C   0  0  0  0  0  0  0  0  0  0  0  0
    4.7491    0.4546   -7.7293 O   0  0  0  0  0  0  0  0  0  0  0  0
    3.7978    2.2344   -8.8290 N   0  0  0  0  0  0  0  0  0  0  0  0
    2.9922    2.5810   -9.2763 H   0  0  0  0  0  0  0  0  0  0  0  0
    2.6428    0.0920   -8.8304 C   0  0  0  0  0  0  0  0  0  0  0  0
    2.9140   -1.3962   -8.6291 C   0  0  0  0  0  0  0  0  0  0  0  0
    2.6476   -2.5393  -11.3166 N   0  0  0  0  0  0  0  0  0  0  0  0
    1.6286   -2.7670  -10.3619 C   0  0  0  0  0  0  0  0  0  0  0  0
    0.6121   -3.6758  -10.6856 C   0  0  0  0  0  0  0  0  0  0  0  0
   -0.4042   -3.9955   -9.7782 C   0  0  0  0  0  0  0  0  0  0  0  0
   -0.3348   -3.4210   -8.5071 C   0  0  0  0  0  0  0  0  0  0  0  0
   -1.1830   -3.5616   -7.4263 N   0  0  0  0  0  0  0  0  0  0  0  0
   -0.7229   -2.8363   -6.3536 C   0  0  0  0  0  0  0  0  0  0  0  0
    0.4498   -2.2265   -6.7505 C   0  0  0  0  0  0  0  0  0  0  0  0
    0.6988   -2.5686   -8.1184 C   0  0  0  0  0  0  0  0  0  0  0  0
    1.7223   -2.2324   -9.0488 C   0  0  0  0  0  0  0  0  0  0  0  0
    2.5670   -2.9170  -12.2222 H   0  0  0  0  0  0  0  0  0  0  0  0
    3.4372   -2.0031  -11.0754 H   0  0  0  0  0  0  0  0  0  0  0  0
   -2.0033   -4.1059   -7.4245 H   0  0  0  0  0  0  0  0  0  0  0  0
    4.9396    3.1078   -8.6222 C   0  0  0  0  0  0  0  0  0  0  0  0
    4.8777    3.8020   -7.2685 C   0  0  0  0  0  0  0  0  0  0  0  0
    6.1526    3.5734   -6.4852 C   0  0  0  0  0  0  0  0  0  0  0  0
    7.1094    4.3422   -6.4845 O   0  0  0  0  0  0  0  0  0  0  0  0
    6.1480    2.4008   -5.7414 N   0  0  0  0  0  0  0  0  0  0  0  0
    5.3329    1.8527   -5.6740 H   0  0  0  0  0  0  0  0  0  0  0  0
    7.3710    1.9972   -5.0633 C   0  0  0  0  0  0  0  0  0  0  0  0
    7.1086    1.3130   -3.7213 C   0  0  0  0  0  0  0  0  0  0  0  0
    8.4462    0.6880   -3.3905 C   0  0  0  0  0  0  0  0  0  0  0  0
    8.9706    0.2151   -4.7157 N   0  0  0  0  0  0  0  0  0  0  0  0
    8.1877    0.9188   -5.8029 C   0  0  0  0  0  0  0  0  0  0  0  0
    9.1423    1.4795   -6.8472 C   0  0  0  0  0  0  0  0  0  0  0  0
    8.8470   -0.7941   -4.7974 H   0  0  0  0  0  0  0  0  0  0  0  0
    9.9650    0.4259   -4.8004 H   0  0  0  0  0  0  0  0  0  0  0  0
  7  8  1  0  0  0
  8  9  2  0  0  0
  9 10  1  0  0  0
 10 11  2  0  0  0
 11 12  1  0  0  0
 12 13  1  0  0  0
 13 14  2  0  0  0
 14 15  1  0  0  0
 15 16  2  0  0  0
 16  6  1  0  0  0
  6  5  1  0  0  0
  5  1  1  0  0  0
  1  2  2  0  0  0
  1  3  1  0  0  0
  3 20  1  0  0  0
 20 21  1  0  0  0
 21 22  1  0  0  0
 22 23  2  0  0  0
 22 24  1  0  0  0
 26 24  1  0  0  0
 26 27  1  0  0  0
 27 28  1  0  0  0
 28 29  1  0  0  0
 29 30  1  0  0  0
 30 31  1  0  0  0
 16  8  1  0  0  0
 30 26  1  0  0  0
 15 11  1  0  0  0
  7 17  1  0  0  0
  7 18  1  0  0  0
 12 19  1  0  0  0
  3  4  1  0  0  0
 24 25  1  0  0  0
 29 32  1  0  0  0
 29 33  1  0  0  0
M  CHG 1  29   1
M  END
> <minimizedAffinity>
-7.13546

$$$$
reduced_peptide_TRP_ALA_PRO_direct


 33 35  0  0  0  0  0  0  0  0999 V2000
    0.7890   -4.6147  -15.4124 C   0  0  0  0  0  0  0  0  0  0  0  0
    1.7438   -4.9214  -16.1191 O   0  0  0  0  0  0  0  0  0  0  0  0
    0.7730   -3.4910  -14.6047 N   0  0  0  0  0  0  0  0  0  0  0  0
    0.0252   -3.3485  -13.9805 H   0  0  0  0  0  0  0  0  0  0  0  0
   -0.4732   -5.4443  -15.3499 C   0  0  0  0  0  0  0  0  0  0  0  0
   -1.2584   -5.3371  -16.6540 C   0  0  0  0  0  0  0  0  0  0  0  0
   -3.3058   -7.4310  -16.8104 N   0  0  0  0  0  0  0  0  0  0  0  0
   -3.6885   -6.1101  -16.4781 C   0  0  0  0  0  0  0  0  0  0  0  0
   -5.0101   -5.8895  -16.0672 C   0  0  0  0  0  0  0  0  0  0  0  0
   -5.4554   -4.6228  -15.6728 C   0  0  0  0  0  0  0  0  0  0  0  0
   -4.5142   -3.5914  -15.6428 C   0  0  0  0  0  0  0  0  0  0  0  0
   -4.6682   -2.2644  -15.2929 N   0  0  0  0  0  0  0  0  0  0  0  0
   -3.4683   -1.5999  -15.3778 C   0  0  0  0  0  0  0  0  0  0  0  0
   -2.5231   -2.5215  -15.7800 C   0  0  0  0  0  0  0  0  0  0  0  0
   -3.1725   -3.7828  -15.9734 C   0  0  0  0  0  0  0  0  0  0  0  0
   -2.7260   -5.0687  -16.3899 C   0  0  0  0  0  0  0  0  0  0  0  0
   -3.9855   -8.1409  -16.8673 H   0  0  0  0  0  0  0  0  0  0  0  0
   -2.3597   -7.6403  -16.9847 H   0  0  0  0  0  0  0  0  0  0  0  0
   -5.5195   -1.8517  -15.0203 H   0  0  0  0  0  0  0  0  0  0  0  0
    1.8514   -2.5204  -14.6712 C   0  0  0  0  0  0  0  0  0  0  0  0
    2.5998   -2.4210  -13.3490 C   0  0  0  0  0  0  0  0  0  0  0  0
    1.6392   -2.2063  -12.1991 C   0  0  0  0  0  0  0  0  0  0  0  0
    0.5288   -1.6961  -12.3136 O   0  0  0  0  0  0  0  0  0  0  0  0
    2.1231   -2.6533  -10.9766 N   0  0  0  0  0  0  0  0  0  0  0  0
    2.9701   -3.1524  -10.9247 H   0  0  0  0  0  0  0  0  0  0  0  0
    1.3544   -2.3699   -9.7736 C   0  0  0  0  0  0  0  0  0  0  0  0
    0.4650   -3.5384   -9.3475 C   0  0  0  0  0  0  0  0  0  0  0  0
    0.0596   -3.1618   -7.9393 C   0  0  0  0  0  0  0  0  0  0  0  0
    1.2888   -2.5232   -7.3595 N   0  0  0  0  0  0  0  0  0  0  0  0
    2.2049   -2.1537   -8.5060 C   0  0  0  0  0  0  0  0  0  0  0  0
    2.6984   -0.7243   -8.3336 C   0  0  0  0  0  0  0  0  0  0  0  0
    1.7598   -3.1797   -6.7371 H   0  0  0  0  0  0  0  0  0  0  0  0
    1.0385   -1.6929   -6.8226 H   0  0  0  0  0  0  0  0  0  0  0  0
  7  8  1  0  0  0
  8  9  2  0  0  0
  9 10  1  0  0  0
 10 11  2  0  0  0
 11 12  1  0  0  0
 12 13  1  0  0  0
 13 14  2  0  0  0
 14 15  1  0  0  0
 15 16  2  0  0  0
 16  6  1  0  0  0
  6  5  1  0  0  0
  5  1  1  0  0  0
  1  2  2  0  0  0
  1  3  1  0  0  0
  3 20  1  0  0  0
 20 21  1  0  0  0
 21 22  1  0  0  0
 22 23  2  0  0  0
 22 24  1  0  0  0
 26 24  1  0  0  0
 26 27  1  0  0  0
 27 28  1  0  0  0
 28 29  1  0  0  0
 29 30  1  0  0  0
 30 31  1  0  0  0
 16  8  1  0  0  0
 30 26  1  0  0  0
 15 11  1  0  0  0
  7 17  1  0  0  0
  7 18  1  0  0  0
 12 19  1  0  0  0
  3  4  1  0  0  0
 24 25  1  0  0  0
 29 32  1  0  0  0
 29 33  1  0  0  0
M  CHG 1  29   1
M  END
> <minimizedAffinity>
-7.01774

$$$$
reduced_peptide_TRP_ALA_PRO_direct


 33 35  0  0  0  0  0  0  0  0999 V2000
    0.0913   -2.8352  -14.8761 C   0  0  0  0  0  0  0  0  0  0  0  0
   -0.6235   -1.9873  -14.3513 O   0  0  0  0  0  0  0  0  0  0  0  0
    1.4656   -2.7097  -14.9804 N   0  0  0  0  0  0  0  0  0  0  0  0
    1.9782   -3.3686  -15.5022 H   0  0  0  0  0  0  0  0  0  0  0  0
   -0.4643   -4.1095  -15.4701 C   0  0  0  0  0  0  0  0  0  0  0  0
   -1.4098   -3.8015  -16.6276 C   0  0  0  0  0  0  0  0  0  0  0  0
   -3.3613   -1.8533  -15.6293 N   0  0  0  0  0  0  0  0  0  0  0  0
   -3.7528   -3.2020  -15.8000 C   0  0  0  0  0  0  0  0  0  0  0  0
   -5.1093   -3.5196  -15.6486 C   0  0  0  0  0  0  0  0  0  0  0  0
   -5.5868   -4.8195  -15.8503 C   0  0  0  0  0  0  0  0  0  0  0  0
   -4.6681   -5.7832  -16.2720 C   0  0  0  0  0  0  0  0  0  0  0  0
   -4.8575   -7.1225  -16.5510 N   0  0  0  0  0  0  0  0  0  0  0  0
   -3.6818   -7.7006  -16.9657 C   0  0  0  0  0  0  0  0  0  0  0  0
   -2.7209   -6.7100  -16.9631 C   0  0  0  0  0  0  0  0  0  0  0  0
   -3.3234   -5.4944  -16.5055 C   0  0  0  0  0  0  0  0  0  0  0  0
   -2.8374   -4.1750  -16.2837 C   0  0  0  0  0  0  0  0  0  0  0  0
   -4.0082   -1.1917  -15.2930 H   0  0  0  0  0  0  0  0  0  0  0  0
   -2.4419   -1.5763  -15.8467 H   0  0  0  0  0  0  0  0  0  0  0  0
   -5.7157   -7.5971  -16.4648 H   0  0  0  0  0  0  0  0  0  0  0  0
    2.1571   -1.6130  -14.3258 C   0  0  0  0  0  0  0  0  0  0  0  0
    2.7938   -2.0534  -13.0147 C   0  0  0  0  0  0  0  0  0  0  0  0
    1.9050   -1.7075  -11.8393 C   0  0  0  0  0  0  0  0  0  0  0  0
    1.2772   -0.6580  -11.7342 O   0  0  0  0  0  0  0  0  0  0  0  0
    1.8478   -2.7014  -10.8712 N   0  0  0  0  0  0  0  0  0  0  0  0
    2.2747   -3.5754  -11.0238 H   0  0  0  0  0  0  0  0  0  0  0  0
    1.1448   -2.4267   -9.6268 C   0  0  0  0  0  0  0  0  0  0  0  0
    0.2557   -3.5869   -9.1778 C   0  0  0  0  0  0  0  0  0  0  0  0
   -0.0727   -3.2294   -7.7448 C   0  0  0  0  0  0  0  0  0  0  0  0
    1.1954   -2.6237   -7.2155 N   0  0  0  0  0  0  0  0  0  0  0  0
    2.0606   -2.2494   -8.3992 C   0  0  0  0  0  0  0  0  0  0  0  0
    2.5888   -0.8326   -8.2263 C   0  0  0  0  0  0  0  0  0  0  0  0
    1.6842   -3.3000   -6.6289 H   0  0  0  0  0  0  0  0  0  0  0  0
    0.9875   -1.7992   -6.6521 H   0  0  0  0  0  0  0  0  0  0  0  0
  7  8  1  0  0  0
  8  9  2  0  0  0
  9 10  1  0  0  0
 10 11  2  0  0  0
 11 12  1  0  0  0
 12 13  1  0  0  0
 13 14  2  0  0  0
 14 15  1  0  0  0
 15 16  2  0  0  0
 16  6  1  0  0  0
  6  5  1  0  0  0
  5  1  1  0  0  0
  1  2  2  0  0  0
  1  3  1  0  0  0
  3 20  1  0  0  0
 20 21  1  0  0  0
 21 22  1  0  0  0
 22 23  2  0  0  0
 22 24  1  0  0  0
 26 24  1  0  0  0
 26 27  1  0  0  0
 27 28  1  0  0  0
 28 29  1  0  0  0
 29 30  1  0  0  0
 30 31  1  0  0  0
 16  8  1  0  0  0
 30 26  1  0  0  0
 15 11  1  0  0  0
  7 17  1  0  0  0
  7 18  1  0  0  0
 12 19  1  0  0  0
  3  4  1  0  0  0
 24 25  1  0  0  0
 29 32  1  0  0  0
 29 33  1  0  0  0
M  CHG 1  29   1
M  END
> <minimizedAffinity>
-6.91027

$$$$
reduced_peptide_TRP_ALA_PRO_direct


 33 35  0  0  0  0  0  0  0  0999 V2000
    5.5592   -2.0296  -11.7945 C   0  0  0  0  0  0  0  0  0  0  0  0
    6.2755   -2.4629  -12.6914 O   0  0  0  0  0  0  0  0  0  0  0  0
    4.2636   -1.5902  -12.0038 N   0  0  0  0  0  0  0  0  0  0  0  0
    3.7705   -1.1561  -11.2707 H   0  0  0  0  0  0  0  0  0  0  0  0
    6.0272   -1.9274  -10.3607 C   0  0  0  0  0  0  0  0  0  0  0  0
    6.9353   -0.7157  -10.1712 C   0  0  0  0  0  0  0  0  0  0  0  0
    8.2479   -0.9846   -7.5625 N   0  0  0  0  0  0  0  0  0  0  0  0
    7.1820   -0.0663   -7.7113 C   0  0  0  0  0  0  0  0  0  0  0  0
    6.9083    0.8049   -6.6482 C   0  0  0  0  0  0  0  0  0  0  0  0
    5.9049    1.7766   -6.7340 C   0  0  0  0  0  0  0  0  0  0  0  0
    5.2228    1.8904   -7.9474 C   0  0  0  0  0  0  0  0  0  0  0  0
    4.2069    2.7518   -8.3127 N   0  0  0  0  0  0  0  0  0  0  0  0
    3.8419    2.5411   -9.6207 C   0  0  0  0  0  0  0  0  0  0  0  0
    4.6470    1.5317  -10.1079 C   0  0  0  0  0  0  0  0  0  0  0  0
    5.5125    1.0932   -9.0549 C   0  0  0  0  0  0  0  0  0  0  0  0
    6.5225    0.0947   -8.9594 C   0  0  0  0  0  0  0  0  0  0  0  0
    8.6942   -1.0839   -6.6906 H   0  0  0  0  0  0  0  0  0  0  0  0
    8.5435   -1.5244   -8.3310 H   0  0  0  0  0  0  0  0  0  0  0  0
    3.8006    3.4234   -7.7185 H   0  0  0  0  0  0  0  0  0  0  0  0
    3.6262   -1.7649  -13.2971 C   0  0  0  0  0  0  0  0  0  0  0  0
    2.2117   -2.3108  -13.1568 C   0  0  0  0  0  0  0  0  0  0  0  0
    1.5824   -1.8540  -11.8582 C   0  0  0  0  0  0  0  0  0  0  0  0
    1.2707   -0.6923  -11.6136 O   0  0  0  0  0  0  0  0  0  0  0  0
    1.3717   -2.8816  -10.9483 N   0  0  0  0  0  0  0  0  0  0  0  0
    1.5322   -3.8187  -11.2039 H   0  0  0  0  0  0  0  0  0  0  0  0
    0.9092   -2.5470   -9.6094 C   0  0  0  0  0  0  0  0  0  0  0  0
   -0.0519   -3.5883   -9.0351 C   0  0  0  0  0  0  0  0  0  0  0  0
   -0.1079   -3.2268   -7.5669 C   0  0  0  0  0  0  0  0  0  0  0  0
    1.2964   -2.8108   -7.2354 N   0  0  0  0  0  0  0  0  0  0  0  0
    2.0156   -2.5258   -8.5359 C   0  0  0  0  0  0  0  0  0  0  0  0
    2.7525   -1.1977   -8.4392 C   0  0  0  0  0  0  0  0  0  0  0  0
    1.7711   -3.5614   -6.7339 H   0  0  0  0  0  0  0  0  0  0  0  0
    1.2907   -1.9805   -6.6428 H   0  0  0  0  0  0  0  0  0  0  0  0
  7  8  1  0  0  0
  8  9  2  0  0  0
  9 10  1  0  0  0
 10 11  2  0  0  0
 11 12  1  0  0  0
 12 13  1  0  0  0
 13 14  2  0  0  0
 14 15  1  0  0  0
 15 16  2  0  0  0
 16  6  1  0  0  0
  6  5  1  0  0  0
  5  1  1  0  0  0
  1  2  2  0  0  0
  1  3  1  0  0  0
  3 20  1  0  0  0
 20 21  1  0  0  0
 21 22  1  0  0  0
 22 23  2  0  0  0
 22 24  1  0  0  0
 26 24  1  0  0  0
 26 27  1  0  0  0
 27 28  1  0  0  0
 28 29  1  0  0  0
 29 30  1  0  0  0
 30 31  1  0  0  0
 16  8  1  0  0  0
 30 26  1  0  0  0
 15 11  1  0  0  0
  7 17  1  0  0  0
  7 18  1  0  0  0
 12 19  1  0  0  0
  3  4  1  0  0  0
 24 25  1  0  0  0
 29 32  1  0  0  0
 29 33  1  0  0  0
M  CHG 1  29   1
M  END
> <minimizedAffinity>
-6.63670

$$$$
reduced_peptide_TRP_ALA_PRO_direct


 33 35  0  0  0  0  0  0  0  0999 V2000
    3.4499    1.3433   -9.3977 C   0  0  0  0  0  0  0  0  0  0  0  0
    4.0264    1.4679  -10.4735 O   0  0  0  0  0  0  0  0  0  0  0  0
    3.8105    2.0417   -8.2586 N   0  0  0  0  0  0  0  0  0  0  0  0
    3.3828    1.8273   -7.3981 H   0  0  0  0  0  0  0  0  0  0  0  0
    2.2820    0.4025   -9.2076 C   0  0  0  0  0  0  0  0  0  0  0  0
    2.7578   -0.9602   -8.7120 C   0  0  0  0  0  0  0  0  0  0  0  0
    1.2558   -2.6703   -6.8626 N   0  0  0  0  0  0  0  0  0  0  0  0
    1.1286   -2.8765   -8.2565 C   0  0  0  0  0  0  0  0  0  0  0  0
    0.1547   -3.7795   -8.7038 C   0  0  0  0  0  0  0  0  0  0  0  0
   -0.0700   -4.0024  -10.0670 C   0  0  0  0  0  0  0  0  0  0  0  0
    0.6722   -3.2420  -10.9733 C   0  0  0  0  0  0  0  0  0  0  0  0
    0.6533   -3.2463  -12.3543 N   0  0  0  0  0  0  0  0  0  0  0  0
    1.5298   -2.3124  -12.8524 C   0  0  0  0  0  0  0  0  0  0  0  0
    2.1150   -1.6887  -11.7693 C   0  0  0  0  0  0  0  0  0  0  0  0
    1.5995   -2.2802  -10.5717 C   0  0  0  0  0  0  0  0  0  0  0  0
    1.8376   -2.0673   -9.1845 C   0  0  0  0  0  0  0  0  0  0  0  0
    0.7574   -3.2400   -6.2332 H   0  0  0  0  0  0  0  0  0  0  0  0
    1.8428   -1.9570   -6.5221 H   0  0  0  0  0  0  0  0  0  0  0  0
    0.0900   -3.8364  -12.9053 H   0  0  0  0  0  0  0  0  0  0  0  0
    4.8150    3.0886   -8.3232 C   0  0  0  0  0  0  0  0  0  0  0  0
    5.8396    2.9536   -7.2050 C   0  0  0  0  0  0  0  0  0  0  0  0
    6.3361    1.5278   -7.0963 C   0  0  0  0  0  0  0  0  0  0  0  0
    5.8267    0.6725   -6.3786 O   0  0  0  0  0  0  0  0  0  0  0  0
    7.4346    1.2565   -7.9014 N   0  0  0  0  0  0  0  0  0  0  0  0
    7.7619    1.9253   -8.5454 H   0  0  0  0  0  0  0  0  0  0  0  0
    8.0929   -0.0354   -7.7750 C   0  0  0  0  0  0  0  0  0  0  0  0
    7.8142   -0.9628   -8.9583 C   0  0  0  0  0  0  0  0  0  0  0  0
    8.8473   -2.0546   -8.7860 C   0  0  0  0  0  0  0  0  0  0  0  0
   10.0686   -1.3328   -8.2937 N   0  0  0  0  0  0  0  0  0  0  0  0
    9.6334    0.0262   -7.7900 C   0  0  0  0  0  0  0  0  0  0  0  0
   10.2508    0.2939   -6.4249 C   0  0  0  0  0  0  0  0  0  0  0  0
   10.7370   -1.2222   -9.0562 H   0  0  0  0  0  0  0  0  0  0  0  0
   10.5173   -1.8621   -7.5461 H   0  0  0  0  0  0  0  0  0  0  0  0
  7  8  1  0  0  0
  8  9  2  0  0  0
  9 10  1  0  0  0
 10 11  2  0  0  0
 11 12  1  0  0  0
 12 13  1  0  0  0
 13 14  2  0  0  0
 14 15  1  0  0  0
 15 16  2  0  0  0
 16  6  1  0  0  0
  6  5  1  0  0  0
  5  1  1  0  0  0
  1  2  2  0  0  0
  1  3  1  0  0  0
  3 20  1  0  0  0
 20 21  1  0  0  0
 21 22  1  0  0  0
 22 23  2  0  0  0
 22 24  1  0  0  0
 26 24  1  0  0  0
 26 27  1  0  0  0
 27 28  1  0  0  0
 28 29  1  0  0  0
 29 30  1  0  0  0
 30 31  1  0  0  0
 16  8  1  0  0  0
 30 26  1  0  0  0
 15 11  1  0  0  0
  7 17  1  0  0  0
  7 18  1  0  0  0
 12 19  1  0  0  0
  3  4  1  0  0  0
 24 25  1  0  0  0
 29 32  1  0  0  0
 29 33  1  0  0  0
M  CHG 1  29   1
M  END
> <minimizedAffinity>
-6.62034

$$$$
reduced_peptide_TRP_ALA_PRO_direct


 33 35  0  0  0  0  0  0  0  0999 V2000
    5.1196   -0.4125  -11.4001 C   0  0  0  0  0  0  0  0  0  0  0  0
    5.3737    0.4475  -12.2374 O   0  0  0  0  0  0  0  0  0  0  0  0
    4.2783   -1.4839  -11.6443 N   0  0  0  0  0  0  0  0  0  0  0  0
    4.0269   -2.0857  -10.9069 H   0  0  0  0  0  0  0  0  0  0  0  0
    5.7016   -0.3833  -10.0052 C   0  0  0  0  0  0  0  0  0  0  0  0
    6.3171    0.9799   -9.7022 C   0  0  0  0  0  0  0  0  0  0  0  0
    4.1891    2.3079   -8.1828 N   0  0  0  0  0  0  0  0  0  0  0  0
    5.3540    1.8714   -7.5087 C   0  0  0  0  0  0  0  0  0  0  0  0
    5.3700    1.9367   -6.1089 C   0  0  0  0  0  0  0  0  0  0  0  0
    6.4624    1.4781   -5.3643 C   0  0  0  0  0  0  0  0  0  0  0  0
    7.5176    0.8912   -6.0662 C   0  0  0  0  0  0  0  0  0  0  0  0
    8.7002    0.3536   -5.5974 N   0  0  0  0  0  0  0  0  0  0  0  0
    9.4483   -0.1473   -6.6356 C   0  0  0  0  0  0  0  0  0  0  0  0
    8.7265    0.0634   -7.7929 C   0  0  0  0  0  0  0  0  0  0  0  0
    7.5110    0.7396   -7.4529 C   0  0  0  0  0  0  0  0  0  0  0  0
    6.4057    1.2219   -8.2092 C   0  0  0  0  0  0  0  0  0  0  0  0
    3.4697    2.7564   -7.6823 H   0  0  0  0  0  0  0  0  0  0  0  0
    4.0980    2.1631   -9.1523 H   0  0  0  0  0  0  0  0  0  0  0  0
    8.9698    0.3321   -4.6508 H   0  0  0  0  0  0  0  0  0  0  0  0
    3.7635   -1.7269  -12.9804 C   0  0  0  0  0  0  0  0  0  0  0  0
    2.3471   -2.2842  -12.9438 C   0  0  0  0  0  0  0  0  0  0  0  0
    1.6187   -1.8275  -11.6980 C   0  0  0  0  0  0  0  0  0  0  0  0
    1.2480   -0.6745  -11.4990 O   0  0  0  0  0  0  0  0  0  0  0  0
    1.3892   -2.8448  -10.7811 N   0  0  0  0  0  0  0  0  0  0  0  0
    1.6012   -3.7796  -11.0055 H   0  0  0  0  0  0  0  0  0  0  0  0
    0.8291   -2.5028   -9.4819 C   0  0  0  0  0  0  0  0  0  0  0  0
   -0.1045   -3.5828   -8.9342 C   0  0  0  0  0  0  0  0  0  0  0  0
   -0.2686   -3.1871   -7.4831 C   0  0  0  0  0  0  0  0  0  0  0  0
    1.0876   -2.6819   -7.0826 N   0  0  0  0  0  0  0  0  0  0  0  0
    1.8663   -2.3898   -8.3468 C   0  0  0  0  0  0  0  0  0  0  0  0
    2.5202   -1.0191   -8.2463 C   0  0  0  0  0  0  0  0  0  0  0  0
    1.5730   -3.3906   -6.5324 H   0  0  0  0  0  0  0  0  0  0  0  0
    0.9998   -1.8383   -6.5160 H   0  0  0  0  0  0  0  0  0  0  0  0
  7  8  1  0  0  0
  8  9  2  0  0  0
  9 10  1  0  0  0
 10 11  2  0  0  0
 11 12  1  0  0  0
 12 13  1  0  0  0
 13 14  2  0  0  0
 14 15  1  0  0  0
 15 16  2  0  0  0
 16  6  1  0  0  0
  6  5  1  0  0  0
  5  1  1  0  0  0
  1  2  2  0  0  0
  1  3  1  0  0  0
  3 20  1  0  0  0
 20 21  1  0  0  0
 21 22  1  0  0  0
 22 23  2  0  0  0
 22 24  1  0  0  0
 26 24  1  0  0  0
 26 27  1  0  0  0
 27 28  1  0  0  0
 28 29  1  0  0  0
 29 30  1  0  0  0
 30 31  1  0  0  0
 16  8  1  0  0  0
 30 26  1  0  0  0
 15 11  1  0  0  0
  7 17  1  0  0  0
  7 18  1  0  0  0
 12 19  1  0  0  0
  3  4  1  0  0  0
 24 25  1  0  0  0
 29 32  1  0  0  0
 29 33  1  0  0  0
M  CHG 1  29   1
M  END
> <minimizedAffinity>
-6.59923

$$$$
reduced_peptide_TRP_ALA_PRO_direct


 33 35  0  0  0  0  0  0  0  0999 V2000
    3.5186    1.3281   -9.3440 C   0  0  0  0  0  0  0  0  0  0  0  0
    4.2487    1.3435  -10.3299 O   0  0  0  0  0  0  0  0  0  0  0  0
    3.6720    2.1911   -8.2730 N   0  0  0  0  0  0  0  0  0  0  0  0
    3.1255    2.0671   -7.4636 H   0  0  0  0  0  0  0  0  0  0  0  0
    2.3728    0.3528   -9.1986 C   0  0  0  0  0  0  0  0  0  0  0  0
    2.8836   -1.0298   -8.8034 C   0  0  0  0  0  0  0  0  0  0  0  0
    1.3928   -2.7160   -6.9231 N   0  0  0  0  0  0  0  0  0  0  0  0
    1.2278   -2.9148   -8.3142 C   0  0  0  0  0  0  0  0  0  0  0  0
    0.2255   -3.7966   -8.7404 C   0  0  0  0  0  0  0  0  0  0  0  0
   -0.0364   -4.0104  -10.0984 C   0  0  0  0  0  0  0  0  0  0  0  0
    0.6987   -3.2618  -11.0202 C   0  0  0  0  0  0  0  0  0  0  0  0
    0.6463   -3.2610  -12.4003 N   0  0  0  0  0  0  0  0  0  0  0  0
    1.5290   -2.3431  -12.9167 C   0  0  0  0  0  0  0  0  0  0  0  0
    2.1527   -1.7349  -11.8463 C   0  0  0  0  0  0  0  0  0  0  0  0
    1.6544   -2.3202  -10.6383 C   0  0  0  0  0  0  0  0  0  0  0  0
    1.9303   -2.1167   -9.2567 C   0  0  0  0  0  0  0  0  0  0  0  0
    0.8984   -3.2778   -6.2835 H   0  0  0  0  0  0  0  0  0  0  0  0
    2.0021   -2.0157   -6.5948 H   0  0  0  0  0  0  0  0  0  0  0  0
    0.0582   -3.8380  -12.9393 H   0  0  0  0  0  0  0  0  0  0  0  0
    4.6331    3.2782   -8.3344 C   0  0  0  0  0  0  0  0  0  0  0  0
    5.2311    3.5769   -6.9664 C   0  0  0  0  0  0  0  0  0  0  0  0
    6.0445    2.4033   -6.4642 C   0  0  0  0  0  0  0  0  0  0  0  0
    5.5653    1.3235   -6.1314 O   0  0  0  0  0  0  0  0  0  0  0  0
    7.4105    2.6494   -6.4192 N   0  0  0  0  0  0  0  0  0  0  0  0
    7.7824    3.4830   -6.7880 H   0  0  0  0  0  0  0  0  0  0  0  0
    8.2819    1.6515   -5.8165 C   0  0  0  0  0  0  0  0  0  0  0  0
    9.2514    1.0254   -6.8195 C   0  0  0  0  0  0  0  0  0  0  0  0
   10.2511    0.3182   -5.9309 C   0  0  0  0  0  0  0  0  0  0  0  0
   10.4182    1.2397   -4.7570 N   0  0  0  0  0  0  0  0  0  0  0  0
    9.2539    2.2063   -4.7560 C   0  0  0  0  0  0  0  0  0  0  0  0
    8.6551    2.2933   -3.3595 C   0  0  0  0  0  0  0  0  0  0  0  0
   11.2953    1.7535   -4.8417 H   0  0  0  0  0  0  0  0  0  0  0  0
   10.4391    0.7073   -3.8872 H   0  0  0  0  0  0  0  0  0  0  0  0
  7  8  1  0  0  0
  8  9  2  0  0  0
  9 10  1  0  0  0
 10 11  2  0  0  0
 11 12  1  0  0  0
 12 13  1  0  0  0
 13 14  2  0  0  0
 14 15  1  0  0  0
 15 16  2  0  0  0
 16  6  1  0  0  0
  6  5  1  0  0  0
  5  1  1  0  0  0
  1  2  2  0  0  0
  1  3  1  0  0  0
  3 20  1  0  0  0
 20 21  1  0  0  0
 21 22  1  0  0  0
 22 23  2  0  0  0
 22 24  1  0  0  0
 26 24  1  0  0  0
 26 27  1  0  0  0
 27 28  1  0  0  0
 28 29  1  0  0  0
 29 30  1  0  0  0
 30 31  1  0  0  0
 16  8  1  0  0  0
 30 26  1  0  0  0
 15 11  1  0  0  0
  7 17  1  0  0  0
  7 18  1  0  0  0
 12 19  1  0  0  0
  3  4  1  0  0  0
 24 25  1  0  0  0
 29 32  1  0  0  0
 29 33  1  0  0  0
M  CHG 1  29   1
M  END
> <minimizedAffinity>
-6.52612

$$$$
reduced_peptide_TRP_ALA_PRO_direct


 33 35  0  0  0  0  0  0  0  0999 V2000
    4.0916    1.1965   -8.7489 C   0  0  0  0  0  0  0  0  0  0  0  0
    4.5457    1.4391   -9.8626 O   0  0  0  0  0  0  0  0  0  0  0  0
    4.2023    2.0668   -7.6786 N   0  0  0  0  0  0  0  0  0  0  0  0
    3.9128    1.7789   -6.7827 H   0  0  0  0  0  0  0  0  0  0  0  0
    3.3645   -0.0905   -8.4322 C   0  0  0  0  0  0  0  0  0  0  0  0
    3.8995   -1.2394   -9.2821 C   0  0  0  0  0  0  0  0  0  0  0  0
    4.0082   -0.4126  -12.0937 N   0  0  0  0  0  0  0  0  0  0  0  0
    2.9624   -1.2612  -11.6602 C   0  0  0  0  0  0  0  0  0  0  0  0
    2.1157   -1.8137  -12.6306 C   0  0  0  0  0  0  0  0  0  0  0  0
    1.0894   -2.7023  -12.2906 C   0  0  0  0  0  0  0  0  0  0  0  0
    0.9773   -3.0710  -10.9482 C   0  0  0  0  0  0  0  0  0  0  0  0
    0.0778   -3.9229  -10.3379 N   0  0  0  0  0  0  0  0  0  0  0  0
    0.3446   -4.0248   -8.9937 C   0  0  0  0  0  0  0  0  0  0  0  0
    1.4440   -3.2307   -8.7381 C   0  0  0  0  0  0  0  0  0  0  0  0
    1.8441   -2.6023   -9.9608 C   0  0  0  0  0  0  0  0  0  0  0  0
    2.8768   -1.6858  -10.3070 C   0  0  0  0  0  0  0  0  0  0  0  0
    4.0528   -0.1277  -13.0351 H   0  0  0  0  0  0  0  0  0  0  0  0
    4.6913   -0.1069  -11.4541 H   0  0  0  0  0  0  0  0  0  0  0  0
   -0.6530   -4.3921  -10.8015 H   0  0  0  0  0  0  0  0  0  0  0  0
    4.7424    3.4018   -7.8671 C   0  0  0  0  0  0  0  0  0  0  0  0
    5.5670    3.8486   -6.6677 C   0  0  0  0  0  0  0  0  0  0  0  0
    6.3155    2.6810   -6.0614 C   0  0  0  0  0  0  0  0  0  0  0  0
    5.7913    1.8027   -5.3828 O   0  0  0  0  0  0  0  0  0  0  0  0
    7.6737    2.6780   -6.3504 N   0  0  0  0  0  0  0  0  0  0  0  0
    8.0539    3.3318   -6.9807 H   0  0  0  0  0  0  0  0  0  0  0  0
    8.5247    1.6899   -5.7038 C   0  0  0  0  0  0  0  0  0  0  0  0
    9.5769    1.1040   -6.6459 C   0  0  0  0  0  0  0  0  0  0  0  0
   10.5287    0.4045   -5.7005 C   0  0  0  0  0  0  0  0  0  0  0  0
   10.5908    1.3087   -4.5032 N   0  0  0  0  0  0  0  0  0  0  0  0
    9.4062    2.2481   -4.5688 C   0  0  0  0  0  0  0  0  0  0  0  0
    8.7092    2.2966   -3.2167 C   0  0  0  0  0  0  0  0  0  0  0  0
   11.4590    1.8439   -4.5176 H   0  0  0  0  0  0  0  0  0  0  0  0
   10.5636    0.7616   -3.6427 H   0  0  0  0  0  0  0  0  0  0  0  0
  7  8  1  0  0  0
  8  9  2  0  0  0
  9 10  1  0  0  0
 10 11  2  0  0  0
 11 12  1  0  0  0
 12 13  1  0  0  0
 13 14  2  0  0  0
 14 15  1  0  0  0
 15 16  2  0  0  0
 16  6  1  0  0  0
  6  5  1  0  0  0
  5  1  1  0  0  0
  1  2  2  0  0  0
  1  3  1  0  0  0
  3 20  1  0  0  0
 20 21  1  0  0  0
 21 22  1  0  0  0
 22 23  2  0  0  0
 22 24  1  0  0  0
 26 24  1  0  0  0
 26 27  1  0  0  0
 27 28  1  0  0  0
 28 29  1  0  0  0
 29 30  1  0  0  0
 30 31  1  0  0  0
 16  8  1  0  0  0
 30 26  1  0  0  0
 15 11  1  0  0  0
  7 17  1  0  0  0
  7 18  1  0  0  0
 12 19  1  0  0  0
  3  4  1  0  0  0
 24 25  1  0  0  0
 29 32  1  0  0  0
 29 33  1  0  0  0
M  CHG 1  29   1
M  END
> <minimizedAffinity>
-6.24558

$$$$
