reduced_peptide_TRP_ALA_PRO


 33 35  0  0  0  0  0  0  0  0999 V2000
    4.6285    0.3884   -8.6699 C   0  0  0  0  0  0  0  0  0  0  0  0
    5.8519    0.4308   -8.7507 O   0  0  0  0  0  0  0  0  0  0  0  0
    3.8405    1.5092   -8.4948 N   0  0  0  0  0  0  0  0  0  0  0  0
    2.8727    1.4077   -8.3459 H   0  0  0  0  0  0  0  0  0  0  0  0
    3.8606   -0.9121   -8.7273 C   0  0  0  0  0  0  0  0  0  0  0  0
    2.3608   -0.6778   -8.5851 C   0  0  0  0  0  0  0  0  0  0  0  0
    0.8605   -2.4575   -6.7822 N   0  0  0  0  0  0  0  0  0  0  0  0
    0.9180   -2.7424   -8.1591 C   0  0  0  0  0  0  0  0  0  0  0  0
    0.1073   -3.7782   -8.6406 C   0  0  0  0  0  0  0  0  0  0  0  0
   -0.0277   -4.0471  -10.0037 C   0  0  0  0  0  0  0  0  0  0  0  0
    0.6439   -3.2049  -10.8902 C   0  0  0  0  0  0  0  0  0  0  0  0
    0.6679   -3.2162  -12.2686 N   0  0  0  0  0  0  0  0  0  0  0  0
    1.4341   -2.1846  -12.7365 C   0  0  0  0  0  0  0  0  0  0  0  0
    1.9251   -1.5042  -11.6472 C   0  0  0  0  0  0  0  0  0  0  0  0
    1.4331   -2.1373  -10.4647 C   0  0  0  0  0  0  0  0  0  0  0  0
    1.5739   -1.8743   -9.0719 C   0  0  0  0  0  0  0  0  0  0  0  0
    0.3996   -3.0759   -6.1704 H   0  0  0  0  0  0  0  0  0  0  0  0
    1.2813   -1.6397   -6.4308 H   0  0  0  0  0  0  0  0  0  0  0  0
    0.2007   -3.8724  -12.8346 H   0  0  0  0  0  0  0  0  0  0  0  0
    4.4297    2.8369   -8.5287 C   0  0  0  0  0  0  0  0  0  0  0  0
    4.3893    3.4942   -7.1569 C   0  0  0  0  0  0  0  0  0  0  0  0
    5.7331    3.4093   -6.4646 C   0  0  0  0  0  0  0  0  0  0  0  0
    6.5974    4.2750   -6.5245 O   0  0  0  0  0  0  0  0  0  0  0  0
    5.9038    2.2463   -5.7242 N   0  0  0  0  0  0  0  0  0  0  0  0
    5.1490    1.6300   -5.5838 H   0  0  0  0  0  0  0  0  0  0  0  0
    7.2119    1.9498   -5.1584 C   0  0  0  0  0  0  0  0  0  0  0  0
    7.1393    1.2684   -3.7910 C   0  0  0  0  0  0  0  0  0  0  0  0
    8.5470    0.7541   -3.5944 C   0  0  0  0  0  0  0  0  0  0  0  0
    8.9737    0.3056   -4.9629 N   0  0  0  0  0  0  0  0  0  0  0  0
    8.0312    0.9249   -5.9678 C   0  0  0  0  0  0  0  0  0  0  0  0
    8.8217    1.5342   -7.1102 C   0  0  0  0  0  0  0  0  0  0  0  0
    8.9272   -0.7114   -5.0247 H   0  0  0  0  0  0  0  0  0  0  0  0
    9.9335    0.5961   -5.1493 H   0  0  0  0  0  0  0  0  0  0  0  0
  7  8  1  0  0  0
  8  9  2  0  0  0
  9 10  1  0  0  0
 10 11  2  0  0  0
 11 12  1  0  0  0
 12 13  1  0  0  0
 13 14  2  0  0  0
 14 15  1  0  0  0
 15 16  2  0  0  0
 16  6  1  0  0  0
  6  5  1  0  0  0
  5  1  1  0  0  0
  1  2  2  0  0  0
  1  3  1  0  0  0
  3 20  1  0  0  0
 20 21  1  0  0  0
 21 22  1  0  0  0
 22 23  2  0  0  0
 22 24  1  0  0  0
 26 24  1  0  0  0
 26 27  1  0  0  0
 27 28  1  0  0  0
 28 29  1  0  0  0
 29 30  1  0  0  0
 30 31  1  0  0  0
 16  8  1  0  0  0
 30 26  1  0  0  0
 15 11  1  0  0  0
  7 17  1  0  0  0
  7 18  1  0  0  0
 12 19  1  0  0  0
  3  4  1  0  0  0
 24 25  1  0  0  0
 29 32  1  0  0  0
 29 33  1  0  0  0
M  CHG 1  29   1
M  END
> <minimizedAffinity>
-7.15200

$$$$
reduced_peptide_TRP_ALA_PRO


 33 35  0  0  0  0  0  0  0  0999 V2000
    0.8237   -4.6067  -15.4156 C   0  0  0  0  0  0  0  0  0  0  0  0
    1.7986   -4.9442  -16.0795 O   0  0  0  0  0  0  0  0  0  0  0  0
    0.7870   -3.4556  -14.6531 N   0  0  0  0  0  0  0  0  0  0  0  0
    0.0136   -3.2804  -14.0697 H   0  0  0  0  0  0  0  0  0  0  0  0
   -0.4338   -5.4422  -15.3464 C   0  0  0  0  0  0  0  0  0  0  0  0
   -1.2289   -5.3568  -16.6445 C   0  0  0  0  0  0  0  0  0  0  0  0
   -3.2810   -7.4679  -16.6637 N   0  0  0  0  0  0  0  0  0  0  0  0
   -3.6568   -6.1281  -16.4537 C   0  0  0  0  0  0  0  0  0  0  0  0
   -4.9858   -5.8776  -16.0893 C   0  0  0  0  0  0  0  0  0  0  0  0
   -5.4291   -4.6087  -15.7124 C   0  0  0  0  0  0  0  0  0  0  0  0
   -4.4781   -3.5893  -15.6613 C   0  0  0  0  0  0  0  0  0  0  0  0
   -4.6235   -2.2666  -15.3009 N   0  0  0  0  0  0  0  0  0  0  0  0
   -3.4179   -1.6243  -15.3634 C   0  0  0  0  0  0  0  0  0  0  0  0
   -2.4810   -2.5388  -15.7838 C   0  0  0  0  0  0  0  0  0  0  0  0
   -3.1357   -3.7938  -15.9776 C   0  0  0  0  0  0  0  0  0  0  0  0
   -2.6922   -5.0890  -16.3704 C   0  0  0  0  0  0  0  0  0  0  0  0
   -3.9695   -8.1696  -16.7176 H   0  0  0  0  0  0  0  0  0  0  0  0
   -2.3297   -7.7035  -16.7567 H   0  0  0  0  0  0  0  0  0  0  0  0
   -5.4731   -1.8451  -15.0365 H   0  0  0  0  0  0  0  0  0  0  0  0
    1.8814   -2.5015  -14.7059 C   0  0  0  0  0  0  0  0  0  0  0  0
    2.5878   -2.3965  -13.3623 C   0  0  0  0  0  0  0  0  0  0  0  0
    1.5984   -2.2064  -12.2321 C   0  0  0  0  0  0  0  0  0  0  0  0
    0.4942   -1.6921  -12.3594 O   0  0  0  0  0  0  0  0  0  0  0  0
    2.0509   -2.6896  -11.0108 N   0  0  0  0  0  0  0  0  0  0  0  0
    2.8818   -3.2152  -10.9601 H   0  0  0  0  0  0  0  0  0  0  0  0
    1.2818   -2.4097   -9.8070 C   0  0  0  0  0  0  0  0  0  0  0  0
    0.3857   -3.5724   -9.3774 C   0  0  0  0  0  0  0  0  0  0  0  0
   -0.0072   -3.1937   -7.9678 C   0  0  0  0  0  0  0  0  0  0  0  0
    1.2286   -2.5609   -7.3945 N   0  0  0  0  0  0  0  0  0  0  0  0
    2.1411   -2.2029   -8.5437 C   0  0  0  0  0  0  0  0  0  0  0  0
    2.6534   -0.7852   -8.3741 C   0  0  0  0  0  0  0  0  0  0  0  0
    1.6974   -3.2182   -6.7712 H   0  0  0  0  0  0  0  0  0  0  0  0
    0.9859   -1.7270   -6.8597 H   0  0  0  0  0  0  0  0  0  0  0  0
  7  8  1  0  0  0
  8  9  2  0  0  0
  9 10  1  0  0  0
 10 11  2  0  0  0
 11 12  1  0  0  0
 12 13  1  0  0  0
 13 14  2  0  0  0
 14 15  1  0  0  0
 15 16  2  0  0  0
 16  6  1  0  0  0
  6  5  1  0  0  0
  5  1  1  0  0  0
  1  2  2  0  0  0
  1  3  1  0  0  0
  3 20  1  0  0  0
 20 21  1  0  0  0
 21 22  1  0  0  0
 22 23  2  0  0  0
 22 24  1  0  0  0
 26 24  1  0  0  0
 26 27  1  0  0  0
 27 28  1  0  0  0
 28 29  1  0  0  0
 29 30  1  0  0  0
 30 31  1  0  0  0
 16  8  1  0  0  0
 30 26  1  0  0  0
 15 11  1  0  0  0
  7 17  1  0  0  0
  7 18  1  0  0  0
 12 19  1  0  0  0
  3  4  1  0  0  0
 24 25  1  0  0  0
 29 32  1  0  0  0
 29 33  1  0  0  0
M  CHG 1  29   1
M  END
> <minimizedAffinity>
-6.89962

$$$$
reduced_peptide_TRP_ALA_PRO


 33 35  0  0  0  0  0  0  0  0999 V2000
    3.8529    1.2048   -9.1564 C   0  0  0  0  0  0  0  0  0  0  0  0
    4.7569    1.1199   -9.9814 O   0  0  0  0  0  0  0  0  0  0  0  0
    3.8365    2.1430   -8.1429 N   0  0  0  0  0  0  0  0  0  0  0  0
    3.1325    2.1077   -7.4556 H   0  0  0  0  0  0  0  0  0  0  0  0
    2.6713    0.2623   -9.1542 C   0  0  0  0  0  0  0  0  0  0  0  0
    3.0993   -1.1633   -8.8235 C   0  0  0  0  0  0  0  0  0  0  0  0
    1.4375   -2.7233   -6.9600 N   0  0  0  0  0  0  0  0  0  0  0  0
    1.3277   -2.9406   -8.3460 C   0  0  0  0  0  0  0  0  0  0  0  0
    0.2975   -3.7791   -8.7905 C   0  0  0  0  0  0  0  0  0  0  0  0
    0.0037   -3.9454  -10.1450 C   0  0  0  0  0  0  0  0  0  0  0  0
    0.7498   -3.1982  -11.0566 C   0  0  0  0  0  0  0  0  0  0  0  0
    0.6595   -3.1407  -12.4311 N   0  0  0  0  0  0  0  0  0  0  0  0
    1.5683   -2.2477  -12.9277 C   0  0  0  0  0  0  0  0  0  0  0  0
    2.2670   -1.7300  -11.8626 C   0  0  0  0  0  0  0  0  0  0  0  0
    1.7605   -2.3214  -10.6647 C   0  0  0  0  0  0  0  0  0  0  0  0
    2.0613   -2.1637   -9.2815 C   0  0  0  0  0  0  0  0  0  0  0  0
    0.9179   -3.2759   -6.3323 H   0  0  0  0  0  0  0  0  0  0  0  0
    2.0340   -2.0187   -6.6179 H   0  0  0  0  0  0  0  0  0  0  0  0
    0.0311   -3.6669  -12.9767 H   0  0  0  0  0  0  0  0  0  0  0  0
    4.8508    3.1816   -8.0837 C   0  0  0  0  0  0  0  0  0  0  0  0
    5.6587    3.0919   -6.7974 C   0  0  0  0  0  0  0  0  0  0  0  0
    6.2300    1.7036   -6.6003 C   0  0  0  0  0  0  0  0  0  0  0  0
    6.0696    1.0270   -5.5921 O   0  0  0  0  0  0  0  0  0  0  0  0
    6.9564    1.2421   -7.6908 N   0  0  0  0  0  0  0  0  0  0  0  0
    6.9602    1.7465   -8.5363 H   0  0  0  0  0  0  0  0  0  0  0  0
    7.7119    0.0039   -7.5686 C   0  0  0  0  0  0  0  0  0  0  0  0
    7.6406   -0.8744   -8.8187 C   0  0  0  0  0  0  0  0  0  0  0  0
    8.7514   -1.8744   -8.5933 C   0  0  0  0  0  0  0  0  0  0  0  0
    9.8428   -1.0768   -7.9388 N   0  0  0  0  0  0  0  0  0  0  0  0
    9.2334    0.2054   -7.4228 C   0  0  0  0  0  0  0  0  0  0  0  0
    9.6866    0.4555   -5.9969 C   0  0  0  0  0  0  0  0  0  0  0  0
   10.5728   -0.8646   -8.6189 H   0  0  0  0  0  0  0  0  0  0  0  0
   10.2599   -1.6059   -7.1730 H   0  0  0  0  0  0  0  0  0  0  0  0
  7  8  1  0  0  0
  8  9  2  0  0  0
  9 10  1  0  0  0
 10 11  2  0  0  0
 11 12  1  0  0  0
 12 13  1  0  0  0
 13 14  2  0  0  0
 14 15  1  0  0  0
 15 16  2  0  0  0
 16  6  1  0  0  0
  6  5  1  0  0  0
  5  1  1  0  0  0
  1  2  2  0  0  0
  1  3  1  0  0  0
  3 20  1  0  0  0
 20 21  1  0  0  0
 21 22  1  0  0  0
 22 23  2  0  0  0
 22 24  1  0  0  0
 26 24  1  0  0  0
 26 27  1  0  0  0
 27 28  1  0  0  0
 28 29  1  0  0  0
 29 30  1  0  0  0
 30 31  1  0  0  0
 16  8  1  0  0  0
 30 26  1  0  0  0
 15 11  1  0  0  0
  7 17  1  0  0  0
  7 18  1  0  0  0
 12 19  1  0  0  0
  3  4  1  0  0  0
 24 25  1  0  0  0
 29 32  1  0  0  0
 29 33  1  0  0  0
M  CHG 1  29   1
M  END
> <minimizedAffinity>
-6.62854

$$$$
reduced_peptide_TRP_ALA_PRO


 33 35  0  0  0  0  0  0  0  0999 V2000
    4.6333    0.5439   -8.5232 C   0  0  0  0  0  0  0  0  0  0  0  0
    4.2885    1.6731   -8.8564 O   0  0  0  0  0  0  0  0  0  0  0  0
    5.7315    0.2907   -7.7249 N   0  0  0  0  0  0  0  0  0  0  0  0
    6.0147   -0.6383   -7.5635 H   0  0  0  0  0  0  0  0  0  0  0  0
    3.8967   -0.6932   -8.9829 C   0  0  0  0  0  0  0  0  0  0  0  0
    2.4418   -0.6741   -8.5272 C   0  0  0  0  0  0  0  0  0  0  0  0
    1.0341   -2.6354   -6.8420 N   0  0  0  0  0  0  0  0  0  0  0  0
    1.0686   -2.8088   -8.2381 C   0  0  0  0  0  0  0  0  0  0  0  0
    0.2771   -3.8273   -8.7841 C   0  0  0  0  0  0  0  0  0  0  0  0
    0.1193   -3.9917  -10.1613 C   0  0  0  0  0  0  0  0  0  0  0  0
    0.7464   -3.0620  -10.9912 C   0  0  0  0  0  0  0  0  0  0  0  0
    0.7396   -2.9636  -12.3664 N   0  0  0  0  0  0  0  0  0  0  0  0
    1.4653   -1.8756  -12.7660 C   0  0  0  0  0  0  0  0  0  0  0  0
    1.9610   -1.2688  -11.6361 C   0  0  0  0  0  0  0  0  0  0  0  0
    1.5142   -2.0080  -10.4980 C   0  0  0  0  0  0  0  0  0  0  0  0
    1.6787   -1.8518   -9.0919 C   0  0  0  0  0  0  0  0  0  0  0  0
    0.6049   -3.3139   -6.2722 H   0  0  0  0  0  0  0  0  0  0  0  0
    1.4391   -1.8356   -6.4351 H   0  0  0  0  0  0  0  0  0  0  0  0
    0.2787   -3.5869  -12.9733 H   0  0  0  0  0  0  0  0  0  0  0  0
    6.4720    1.3854   -7.1214 C   0  0  0  0  0  0  0  0  0  0  0  0
    5.9532    1.7001   -5.7260 C   0  0  0  0  0  0  0  0  0  0  0  0
    7.0894    1.8630   -4.7386 C   0  0  0  0  0  0  0  0  0  0  0  0
    7.2606    2.8538   -4.0392 O   0  0  0  0  0  0  0  0  0  0  0  0
    7.9345    0.7621   -4.6780 N   0  0  0  0  0  0  0  0  0  0  0  0
    7.7025   -0.0705   -5.1494 H   0  0  0  0  0  0  0  0  0  0  0  0
    9.1672    0.8542   -3.9091 C   0  0  0  0  0  0  0  0  0  0  0  0
    9.2084   -0.1011   -2.7154 C   0  0  0  0  0  0  0  0  0  0  0  0
   10.6665   -0.0821   -2.3173 C   0  0  0  0  0  0  0  0  0  0  0  0
   11.4073   -0.0089   -3.6218 N   0  0  0  0  0  0  0  0  0  0  0  0
   10.4283    0.4271   -4.6863 C   0  0  0  0  0  0  0  0  0  0  0  0
   11.0373    1.5342   -5.5258 C   0  0  0  0  0  0  0  0  0  0  0  0
   11.7887   -0.9254   -3.8559 H   0  0  0  0  0  0  0  0  0  0  0  0
   12.1796    0.6541   -3.5557 H   0  0  0  0  0  0  0  0  0  0  0  0
  7  8  1  0  0  0
  8  9  2  0  0  0
  9 10  1  0  0  0
 10 11  2  0  0  0
 11 12  1  0  0  0
 12 13  1  0  0  0
 13 14  2  0  0  0
 14 15  1  0  0  0
 15 16  2  0  0  0
 16  6  1  0  0  0
  6  5  1  0  0  0
  5  1  1  0  0  0
  1  2  2  0  0  0
  1  3  1  0  0  0
  3 20  1  0  0  0
 20 21  1  0  0  0
 21 22  1  0  0  0
 22 23  2  0  0  0
 22 24  1  0  0  0
 26 24  1  0  0  0
 26 27  1  0  0  0
 27 28  1  0  0  0
 28 29  1  0  0  0
 29 30  1  0  0  0
 30 31  1  0  0  0
 16  8  1  0  0  0
 30 26  1  0  0  0
 15 11  1  0  0  0
  7 17  1  0  0  0
  7 18  1  0  0  0
 12 19  1  0  0  0
  3  4  1  0  0  0
 24 25  1  0  0  0
 29 32  1  0  0  0
 29 33  1  0  0  0
M  CHG 1  29   1
M  END
> <minimizedAffinity>
-6.56532

$$$$
reduced_peptide_TRP_ALA_PRO


 33 35  0  0  0  0  0  0  0  0999 V2000
    0.9204   -4.8093  -15.2907 C   0  0  0  0  0  0  0  0  0  0  0  0
    1.7977   -5.6073  -15.6048 O   0  0  0  0  0  0  0  0  0  0  0  0
    1.1829   -3.5205  -14.8693 N   0  0  0  0  0  0  0  0  0  0  0  0
    0.4470   -2.9534  -14.5437 H   0  0  0  0  0  0  0  0  0  0  0  0
   -0.5462   -5.1740  -15.3090 C   0  0  0  0  0  0  0  0  0  0  0  0
   -1.3193   -4.3145  -16.3032 C   0  0  0  0  0  0  0  0  0  0  0  0
   -3.2334   -2.2043  -15.5605 N   0  0  0  0  0  0  0  0  0  0  0  0
   -3.6867   -3.5210  -15.7631 C   0  0  0  0  0  0  0  0  0  0  0  0
   -5.0708   -3.7358  -15.7690 C   0  0  0  0  0  0  0  0  0  0  0  0
   -5.6327   -4.9680  -16.1078 C   0  0  0  0  0  0  0  0  0  0  0  0
   -4.7582   -5.9834  -16.4957 C   0  0  0  0  0  0  0  0  0  0  0  0
   -5.0304   -7.2717  -16.9043 N   0  0  0  0  0  0  0  0  0  0  0  0
   -3.8703   -7.9215  -17.2235 C   0  0  0  0  0  0  0  0  0  0  0  0
   -2.8310   -7.0480  -17.0053 C   0  0  0  0  0  0  0  0  0  0  0  0
   -3.3755   -5.8105  -16.5432 C   0  0  0  0  0  0  0  0  0  0  0  0
   -2.8084   -4.5535  -16.1871 C   0  0  0  0  0  0  0  0  0  0  0  0
   -3.8628   -1.5068  -15.2663 H   0  0  0  0  0  0  0  0  0  0  0  0
   -2.2868   -1.9807  -15.7129 H   0  0  0  0  0  0  0  0  0  0  0  0
   -5.9304   -7.6670  -16.9584 H   0  0  0  0  0  0  0  0  0  0  0  0
    2.5373   -2.9956  -14.9029 C   0  0  0  0  0  0  0  0  0  0  0  0
    2.6345   -1.6701  -14.1620 C   0  0  0  0  0  0  0  0  0  0  0  0
    1.8685   -1.7102  -12.8566 C   0  0  0  0  0  0  0  0  0  0  0  0
    0.6529   -1.5921  -12.7647 O   0  0  0  0  0  0  0  0  0  0  0  0
    2.6763   -1.9127  -11.7448 N   0  0  0  0  0  0  0  0  0  0  0  0
    3.6288   -2.1361  -11.8552 H   0  0  0  0  0  0  0  0  0  0  0  0
    2.0978   -1.7907  -10.4145 C   0  0  0  0  0  0  0  0  0  0  0  0
    2.4552   -2.9556   -9.4901 C   0  0  0  0  0  0  0  0  0  0  0  0
    2.0637   -2.4367   -8.1254 C   0  0  0  0  0  0  0  0  0  0  0  0
    2.4325   -0.9812   -8.1610 N   0  0  0  0  0  0  0  0  0  0  0  0
    2.6227   -0.5870   -9.6067 C   0  0  0  0  0  0  0  0  0  0  0  0
    1.8887    0.7101   -9.8893 C   0  0  0  0  0  0  0  0  0  0  0  0
    3.2985   -0.8301   -7.6436 H   0  0  0  0  0  0  0  0  0  0  0  0
    1.6985   -0.4176   -7.7322 H   0  0  0  0  0  0  0  0  0  0  0  0
  7  8  1  0  0  0
  8  9  2  0  0  0
  9 10  1  0  0  0
 10 11  2  0  0  0
 11 12  1  0  0  0
 12 13  1  0  0  0
 13 14  2  0  0  0
 14 15  1  0  0  0
 15 16  2  0  0  0
 16  6  1  0  0  0
  6  5  1  0  0  0
  5  1  1  0  0  0
  1  2  2  0  0  0
  1  3  1  0  0  0
  3 20  1  0  0  0
 20 21  1  0  0  0
 21 22  1  0  0  0
 22 23  2  0  0  0
 22 24  1  0  0  0
 26 24  1  0  0  0
 26 27  1  0  0  0
 27 28  1  0  0  0
 28 29  1  0  0  0
 29 30  1  0  0  0
 30 31  1  0  0  0
 16  8  1  0  0  0
 30 26  1  0  0  0
 15 11  1  0  0  0
  7 17  1  0  0  0
  7 18  1  0  0  0
 12 19  1  0  0  0
  3  4  1  0  0  0
 24 25  1  0  0  0
 29 32  1  0  0  0
 29 33  1  0  0  0
M  CHG 1  29   1
M  END
> <minimizedAffinity>
-6.17481

$$$$
reduced_peptide_TRP_ALA_PRO


 33 35  0  0  0  0  0  0  0  0999 V2000
    5.4500   -0.8330  -11.0843 C   0  0  0  0  0  0  0  0  0  0  0  0
    6.3833   -1.3693  -11.6727 O   0  0  0  0  0  0  0  0  0  0  0  0
    4.2079   -0.6337  -11.6546 N   0  0  0  0  0  0  0  0  0  0  0  0
    3.5244   -0.1177  -11.1691 H   0  0  0  0  0  0  0  0  0  0  0  0
    5.5806   -0.3086   -9.6728 C   0  0  0  0  0  0  0  0  0  0  0  0
    6.4247    0.9604   -9.6282 C   0  0  0  0  0  0  0  0  0  0  0  0
    4.2917    2.9695   -9.9147 N   0  0  0  0  0  0  0  0  0  0  0  0
    4.9972    2.8655   -8.7016 C   0  0  0  0  0  0  0  0  0  0  0  0
    4.5318    3.6171   -7.6151 C   0  0  0  0  0  0  0  0  0  0  0  0
    5.0609    3.4777   -6.3308 C   0  0  0  0  0  0  0  0  0  0  0  0
    6.0521    2.5129   -6.1499 C   0  0  0  0  0  0  0  0  0  0  0  0
    6.7228    2.1436   -5.0034 N   0  0  0  0  0  0  0  0  0  0  0  0
    7.5961    1.1265   -5.2734 C   0  0  0  0  0  0  0  0  0  0  0  0
    7.5011    0.8423   -6.6154 C   0  0  0  0  0  0  0  0  0  0  0  0
    6.5242    1.7126   -7.1894 C   0  0  0  0  0  0  0  0  0  0  0  0
    5.9865    1.8667   -8.4993 C   0  0  0  0  0  0  0  0  0  0  0  0
    3.6106    3.6710  -10.0295 H   0  0  0  0  0  0  0  0  0  0  0  0
    4.4793    2.3407  -10.6487 H   0  0  0  0  0  0  0  0  0  0  0  0
    6.5918    2.5531   -4.1177 H   0  0  0  0  0  0  0  0  0  0  0  0
    3.9028   -1.1801  -12.9658 C   0  0  0  0  0  0  0  0  0  0  0  0
    2.6748   -2.0774  -12.9181 C   0  0  0  0  0  0  0  0  0  0  0  0
    1.7791   -1.7252  -11.7492 C   0  0  0  0  0  0  0  0  0  0  0  0
    1.2202   -0.6446  -11.6079 O   0  0  0  0  0  0  0  0  0  0  0  0
    1.6269   -2.7598  -10.8348 N   0  0  0  0  0  0  0  0  0  0  0  0
    1.9766   -3.6578  -11.0360 H   0  0  0  0  0  0  0  0  0  0  0  0
    0.9440   -2.5003   -9.5756 C   0  0  0  0  0  0  0  0  0  0  0  0
    0.0430   -3.6521   -9.1274 C   0  0  0  0  0  0  0  0  0  0  0  0
   -0.2487   -3.3113   -7.6839 C   0  0  0  0  0  0  0  0  0  0  0  0
    1.0390   -2.7327   -7.1709 N   0  0  0  0  0  0  0  0  0  0  0  0
    1.8872   -2.3606   -8.3641 C   0  0  0  0  0  0  0  0  0  0  0  0
    2.4509   -0.9641   -8.1817 C   0  0  0  0  0  0  0  0  0  0  0  0
    1.5267   -3.4236   -6.6007 H   0  0  0  0  0  0  0  0  0  0  0  0
    0.8553   -1.9112   -6.5948 H   0  0  0  0  0  0  0  0  0  0  0  0
  7  8  1  0  0  0
  8  9  2  0  0  0
  9 10  1  0  0  0
 10 11  2  0  0  0
 11 12  1  0  0  0
 12 13  1  0  0  0
 13 14  2  0  0  0
 14 15  1  0  0  0
 15 16  2  0  0  0
 16  6  1  0  0  0
  6  5  1  0  0  0
  5  1  1  0  0  0
  1  2  2  0  0  0
  1  3  1  0  0  0
  3 20  1  0  0  0
 20 21  1  0  0  0
 21 22  1  0  0  0
 22 23  2  0  0  0
 22 24  1  0  0  0
 26 24  1  0  0  0
 26 27  1  0  0  0
 27 28  1  0  0  0
 28 29  1  0  0  0
 29 30  1  0  0  0
 30 31  1  0  0  0
 16  8  1  0  0  0
 30 26  1  0  0  0
 15 11  1  0  0  0
  7 17  1  0  0  0
  7 18  1  0  0  0
 12 19  1  0  0  0
  3  4  1  0  0  0
 24 25  1  0  0  0
 29 32  1  0  0  0
 29 33  1  0  0  0
M  CHG 1  29   1
M  END
> <minimizedAffinity>
-6.16867

$$$$
reduced_peptide_TRP_ALA_PRO


 33 35  0  0  0  0  0  0  0  0999 V2000
    4.2986    1.1631   -8.7177 C   0  0  0  0  0  0  0  0  0  0  0  0
    5.3399    1.0592   -9.3580 O   0  0  0  0  0  0  0  0  0  0  0  0
    3.9824    2.2728   -7.9587 N   0  0  0  0  0  0  0  0  0  0  0  0
    3.1762    2.2649   -7.3937 H   0  0  0  0  0  0  0  0  0  0  0  0
    3.2637    0.0624   -8.6761 C   0  0  0  0  0  0  0  0  0  0  0  0
    3.7721   -1.2033   -9.3575 C   0  0  0  0  0  0  0  0  0  0  0  0
    3.9711   -0.5920  -12.2307 N   0  0  0  0  0  0  0  0  0  0  0  0
    2.8780   -1.3345  -11.7469 C   0  0  0  0  0  0  0  0  0  0  0  0
    2.0119   -1.9017  -12.6904 C   0  0  0  0  0  0  0  0  0  0  0  0
    0.9865   -2.7776  -12.3295 C   0  0  0  0  0  0  0  0  0  0  0  0
    0.8808   -3.1153  -10.9800 C   0  0  0  0  0  0  0  0  0  0  0  0
   -0.0039   -3.9659  -10.3518 N   0  0  0  0  0  0  0  0  0  0  0  0
    0.2706   -4.0292   -9.0136 C   0  0  0  0  0  0  0  0  0  0  0  0
    1.3380   -3.1978   -8.7684 C   0  0  0  0  0  0  0  0  0  0  0  0
    1.7403   -2.6085  -10.0062 C   0  0  0  0  0  0  0  0  0  0  0  0
    2.7785   -1.7080  -10.3803 C   0  0  0  0  0  0  0  0  0  0  0  0
    4.0162   -0.3458  -13.1828 H   0  0  0  0  0  0  0  0  0  0  0  0
    4.6908   -0.3187  -11.6169 H   0  0  0  0  0  0  0  0  0  0  0  0
   -0.7288   -4.4570  -10.8018 H   0  0  0  0  0  0  0  0  0  0  0  0
    4.8310    3.4518   -7.9879 C   0  0  0  0  0  0  0  0  0  0  0  0
    5.4014    3.7560   -6.6104 C   0  0  0  0  0  0  0  0  0  0  0  0
    6.1514    2.5666   -6.0488 C   0  0  0  0  0  0  0  0  0  0  0  0
    5.6219    1.5209   -5.6932 O   0  0  0  0  0  0  0  0  0  0  0  0
    7.5258    2.7574   -5.9828 N   0  0  0  0  0  0  0  0  0  0  0  0
    7.9389    3.5502   -6.3952 H   0  0  0  0  0  0  0  0  0  0  0  0
    8.3478    1.7713   -5.2966 C   0  0  0  0  0  0  0  0  0  0  0  0
    9.7840    1.7116   -5.8193 C   0  0  0  0  0  0  0  0  0  0  0  0
   10.4998    0.9167   -4.7513 C   0  0  0  0  0  0  0  0  0  0  0  0
    9.8754    1.3758   -3.4648 N   0  0  0  0  0  0  0  0  0  0  0  0
    8.5785    2.0727   -3.8024 C   0  0  0  0  0  0  0  0  0  0  0  0
    7.4710    1.5703   -2.8957 C   0  0  0  0  0  0  0  0  0  0  0  0
   10.5024    2.0227   -2.9865 H   0  0  0  0  0  0  0  0  0  0  0  0
    9.7025    0.5807   -2.8496 H   0  0  0  0  0  0  0  0  0  0  0  0
  7  8  1  0  0  0
  8  9  2  0  0  0
  9 10  1  0  0  0
 10 11  2  0  0  0
 11 12  1  0  0  0
 12 13  1  0  0  0
 13 14  2  0  0  0
 14 15  1  0  0  0
 15 16  2  0  0  0
 16  6  1  0  0  0
  6  5  1  0  0  0
  5  1  1  0  0  0
  1  2  2  0  0  0
  1  3  1  0  0  0
  3 20  1  0  0  0
 20 21  1  0  0  0
 21 22  1  0  0  0
 22 23  2  0  0  0
 22 24  1  0  0  0
 26 24  1  0  0  0
 26 27  1  0  0  0
 27 28  1  0  0  0
 28 29  1  0  0  0
 29 30  1  0  0  0
 30 31  1  0  0  0
 16  8  1  0  0  0
 30 26  1  0  0  0
 15 11  1  0  0  0
  7 17  1  0  0  0
  7 18  1  0  0  0
 12 19  1  0  0  0
  3  4  1  0  0  0
 24 25  1  0  0  0
 29 32  1  0  0  0
 29 33  1  0  0  0
M  CHG 1  29   1
M  END
> <minimizedAffinity>
-6.11199

$$$$
reduced_peptide_TRP_ALA_PRO


 33 35  0  0  0  0  0  0  0  0999 V2000
    3.4588    2.2496   -9.5751 C   0  0  0  0  0  0  0  0  0  0  0  0
    3.8181    2.8843  -10.5616 O   0  0  0  0  0  0  0  0  0  0  0  0
    3.9382    2.4902   -8.3023 N   0  0  0  0  0  0  0  0  0  0  0  0
    3.6837    1.8919   -7.5631 H   0  0  0  0  0  0  0  0  0  0  0  0
    2.4668    1.1129   -9.6644 C   0  0  0  0  0  0  0  0  0  0  0  0
    3.1730   -0.2377   -9.7085 C   0  0  0  0  0  0  0  0  0  0  0  0
    2.8547   -1.2120  -12.4686 N   0  0  0  0  0  0  0  0  0  0  0  0
    2.0455   -1.7360  -11.4434 C   0  0  0  0  0  0  0  0  0  0  0  0
    1.2328   -2.8330  -11.7566 C   0  0  0  0  0  0  0  0  0  0  0  0
    0.5059   -3.5236  -10.7853 C   0  0  0  0  0  0  0  0  0  0  0  0
    0.6559   -3.1102   -9.4614 C   0  0  0  0  0  0  0  0  0  0  0  0
    0.0917   -3.6186   -8.3107 N   0  0  0  0  0  0  0  0  0  0  0  0
    0.5390   -2.9266   -7.2193 C   0  0  0  0  0  0  0  0  0  0  0  0
    1.3931   -1.9475   -7.6693 C   0  0  0  0  0  0  0  0  0  0  0  0
    1.4809   -2.0488   -9.0917 C   0  0  0  0  0  0  0  0  0  0  0  0
    2.2124   -1.3425  -10.0890 C   0  0  0  0  0  0  0  0  0  0  0  0
    2.7185   -1.5013  -13.3997 H   0  0  0  0  0  0  0  0  0  0  0  0
    3.5570   -0.5560  -12.2547 H   0  0  0  0  0  0  0  0  0  0  0  0
   -0.5419   -4.3714   -8.2793 H   0  0  0  0  0  0  0  0  0  0  0  0
    4.8153    3.6199   -8.0465 C   0  0  0  0  0  0  0  0  0  0  0  0
    5.8466    3.2876   -6.9781 C   0  0  0  0  0  0  0  0  0  0  0  0
    6.1801    1.8107   -6.9736 C   0  0  0  0  0  0  0  0  0  0  0  0
    5.4983    0.9498   -6.4313 O   0  0  0  0  0  0  0  0  0  0  0  0
    7.3443    1.5023   -7.6660 N   0  0  0  0  0  0  0  0  0  0  0  0
    7.8015    2.1894   -8.2027 H   0  0  0  0  0  0  0  0  0  0  0  0
    7.8802    0.1510   -7.5884 C   0  0  0  0  0  0  0  0  0  0  0  0
    7.6530   -0.6641   -8.8625 C   0  0  0  0  0  0  0  0  0  0  0  0
    8.5800   -1.8438   -8.6791 C   0  0  0  0  0  0  0  0  0  0  0  0
    9.7950   -1.2623   -8.0146 N   0  0  0  0  0  0  0  0  0  0  0  0
    9.4148    0.0880   -7.4547 C   0  0  0  0  0  0  0  0  0  0  0  0
    9.9132    0.2144   -6.0275 C   0  0  0  0  0  0  0  0  0  0  0  0
   10.5458   -1.1560   -8.6967 H   0  0  0  0  0  0  0  0  0  0  0  0
   10.1216   -1.8774   -7.2693 H   0  0  0  0  0  0  0  0  0  0  0  0
  7  8  1  0  0  0
  8  9  2  0  0  0
  9 10  1  0  0  0
 10 11  2  0  0  0
 11 12  1  0  0  0
 12 13  1  0  0  0
 13 14  2  0  0  0
 14 15  1  0  0  0
 15 16  2  0  0  0
 16  6  1  0  0  0
  6  5  1  0  0  0
  5  1  1  0  0  0
  1  2  2  0  0  0
  1  3  1  0  0  0
  3 20  1  0  0  0
 20 21  1  0  0  0
 21 22  1  0  0  0
 22 23  2  0  0  0
 22 24  1  0  0  0
 26 24  1  0  0  0
 26 27  1  0  0  0
 27 28  1  0  0  0
 28 29  1  0  0  0
 29 30  1  0  0  0
 30 31  1  0  0  0
 16  8  1  0  0  0
 30 26  1  0  0  0
 15 11  1  0  0  0
  7 17  1  0  0  0
  7 18  1  0  0  0
 12 19  1  0  0  0
  3  4  1  0  0  0
 24 25  1  0  0  0
 29 32  1  0  0  0
 29 33  1  0  0  0
M  CHG 1  29   1
M  END
> <minimizedAffinity>
-5.93302

$$$$
reduced_peptide_TRP_ALA_PRO


 33 35  0  0  0  0  0  0  0  0999 V2000
    4.9911    2.4988  -10.3302 C   0  0  0  0  0  0  0  0  0  0  0  0
    6.0418    2.9999  -10.7174 O   0  0  0  0  0  0  0  0  0  0  0  0
    4.3768    2.8469   -9.1432 N   0  0  0  0  0  0  0  0  0  0  0  0
    3.5841    2.3488   -8.8387 H   0  0  0  0  0  0  0  0  0  0  0  0
    4.2754    1.4207  -11.1111 C   0  0  0  0  0  0  0  0  0  0  0  0
    2.8107    1.3174  -10.7003 C   0  0  0  0  0  0  0  0  0  0  0  0
    2.9889   -0.1349   -8.1455 N   0  0  0  0  0  0  0  0  0  0  0  0
    2.5544   -0.8061   -9.3035 C   0  0  0  0  0  0  0  0  0  0  0  0
    2.0577   -2.1068   -9.1505 C   0  0  0  0  0  0  0  0  0  0  0  0
    1.4640   -2.8067  -10.2023 C   0  0  0  0  0  0  0  0  0  0  0  0
    1.3337   -2.1391  -11.4204 C   0  0  0  0  0  0  0  0  0  0  0  0
    0.7707   -2.5676  -12.6036 N   0  0  0  0  0  0  0  0  0  0  0  0
    0.8276   -1.5739  -13.5414 C   0  0  0  0  0  0  0  0  0  0  0  0
    1.4487   -0.4919  -12.9632 C   0  0  0  0  0  0  0  0  0  0  0  0
    1.7771   -0.8317  -11.6149 C   0  0  0  0  0  0  0  0  0  0  0  0
    2.3904   -0.1267  -10.5400 C   0  0  0  0  0  0  0  0  0  0  0  0
    3.0945   -0.6291   -7.3005 H   0  0  0  0  0  0  0  0  0  0  0  0
    3.1873    0.8287   -8.1802 H   0  0  0  0  0  0  0  0  0  0  0  0
    0.3834   -3.4605  -12.7521 H   0  0  0  0  0  0  0  0  0  0  0  0
    4.8920    3.9430   -8.3406 C   0  0  0  0  0  0  0  0  0  0  0  0
    4.8416    3.6119   -6.8563 C   0  0  0  0  0  0  0  0  0  0  0  0
    5.6616    2.3796   -6.5376 C   0  0  0  0  0  0  0  0  0  0  0  0
    5.2329    1.2333   -6.5839 O   0  0  0  0  0  0  0  0  0  0  0  0
    6.9779    2.6619   -6.1950 N   0  0  0  0  0  0  0  0  0  0  0  0
    7.3333    3.5748   -6.2929 H   0  0  0  0  0  0  0  0  0  0  0  0
    7.8255    1.5919   -5.6893 C   0  0  0  0  0  0  0  0  0  0  0  0
    9.1663    1.4867   -6.4177 C   0  0  0  0  0  0  0  0  0  0  0  0
    9.9752    0.5894   -5.5092 C   0  0  0  0  0  0  0  0  0  0  0  0
    9.5697    1.0010   -4.1228 N   0  0  0  0  0  0  0  0  0  0  0  0
    8.2844    1.7870   -4.2305 C   0  0  0  0  0  0  0  0  0  0  0  0
    7.2873    1.2903   -3.2008 C   0  0  0  0  0  0  0  0  0  0  0  0
   10.2976    1.5819   -3.7067 H   0  0  0  0  0  0  0  0  0  0  0  0
    9.4363    0.1799   -3.5326 H   0  0  0  0  0  0  0  0  0  0  0  0
  7  8  1  0  0  0
  8  9  2  0  0  0
  9 10  1  0  0  0
 10 11  2  0  0  0
 11 12  1  0  0  0
 12 13  1  0  0  0
 13 14  2  0  0  0
 14 15  1  0  0  0
 15 16  2  0  0  0
 16  6  1  0  0  0
  6  5  1  0  0  0
  5  1  1  0  0  0
  1  2  2  0  0  0
  1  3  1  0  0  0
  3 20  1  0  0  0
 20 21  1  0  0  0
 21 22  1  0  0  0
 22 23  2  0  0  0
 22 24  1  0  0  0
 26 24  1  0  0  0
 26 27  1  0  0  0
 27 28  1  0  0  0
 28 29  1  0  0  0
 29 30  1  0  0  0
 30 31  1  0  0  0
 16  8  1  0  0  0
 30 26  1  0  0  0
 15 11  1  0  0  0
  7 17  1  0  0  0
  7 18  1  0  0  0
 12 19  1  0  0  0
  3  4  1  0  0  0
 24 25  1  0  0  0
 29 32  1  0  0  0
 29 33  1  0  0  0
M  CHG 1  29   1
M  END
> <minimizedAffinity>
-5.86558

$$$$
