bridge_LYS46_TYR49_carboxylic_acid_diene_naphthalene


 18 19  0  0  0  0  0  0  0  0999 V2000
    3.5933   -1.0428   -9.3853 C   0  0  0  0  0  0  0  0  0  0  0  0
    3.3772   -1.7517  -10.5718 C   0  0  0  0  0  0  0  0  0  0  0  0
    2.2803   -2.6079  -10.6952 C   0  0  0  0  0  0  0  0  0  0  0  0
    1.3786   -2.7787   -9.6337 C   0  0  0  0  0  0  0  0  0  0  0  0
    0.2717   -3.6363   -9.7431 C   0  0  0  0  0  0  0  0  0  0  0  0
   -0.6145   -3.7972   -8.6767 C   0  0  0  0  0  0  0  0  0  0  0  0
   -0.4053   -3.1038   -7.4883 C   0  0  0  0  0  0  0  0  0  0  0  0
    0.6902   -2.2477   -7.3639 C   0  0  0  0  0  0  0  0  0  0  0  0
    1.5908   -2.0739   -8.4276 C   0  0  0  0  0  0  0  0  0  0  0  0
    2.6981   -1.2157   -8.3182 C   0  0  0  0  0  0  0  0  0  0  0  0
    4.7859   -0.1279   -9.2398 C   0  0  0  0  0  0  0  0  0  0  0  0
    5.6056    1.1562   -7.2372 C   0  0  0  0  0  0  0  0  0  0  0  0
    4.6244    0.8373   -8.0980 C   0  0  0  0  0  0  0  0  0  0  0  0
    5.4440    2.1162   -6.0912 C   0  0  0  0  0  0  0  0  0  0  0  0
    7.2091    2.6952   -4.4735 O   0  0  0  0  0  0  0  0  0  0  0  0
    6.4807    1.8777   -5.0113 C   0  0  0  0  0  0  0  0  0  0  0  0
    6.5183    0.5834   -4.6277 O   0  0  0  0  0  0  0  0  0  0  0  0
    5.9586   -0.0442   -5.0411 H   0  0  0  0  0  0  0  0  0  0  0  0
 15 16  2  0  0  0
 16 17  1  0  0  0
 16 14  1  0  0  0
 14 12  1  0  0  0
 12 13  2  0  0  0
 13 11  1  0  0  0
 11  1  1  0  0  0
  1  2  2  0  0  0
  2  3  1  0  0  0
  3  4  2  0  0  0
  4  5  1  0  0  0
  5  6  2  0  0  0
  6  7  1  0  0  0
  7  8  2  0  0  0
  8  9  1  0  0  0
  9 10  2  0  0  0
 10  1  1  0  0  0
  9  4  1  0  0  0
 17 18  1  0  0  0
M  END
> <minimizedAffinity>
-7.21514

$$$$
bridge_LYS46_TYR49_carboxylic_acid_diene_naphthalene


 18 19  0  0  0  0  0  0  0  0999 V2000
    3.3808   -0.7016   -8.9515 C   0  0  0  0  0  0  0  0  0  0  0  0
    3.4910   -1.2646  -10.2275 C   0  0  0  0  0  0  0  0  0  0  0  0
    2.5786   -2.2318  -10.6558 C   0  0  0  0  0  0  0  0  0  0  0  0
    1.5396   -2.6618   -9.8163 C   0  0  0  0  0  0  0  0  0  0  0  0
    0.6152   -3.6336  -10.2332 C   0  0  0  0  0  0  0  0  0  0  0  0
   -0.4111   -4.0524   -9.3848 C   0  0  0  0  0  0  0  0  0  0  0  0
   -0.5260   -3.5059   -8.1101 C   0  0  0  0  0  0  0  0  0  0  0  0
    0.3849   -2.5391   -7.6811 C   0  0  0  0  0  0  0  0  0  0  0  0
    1.4227   -2.1061   -8.5226 C   0  0  0  0  0  0  0  0  0  0  0  0
    2.3474   -1.1336   -8.1057 C   0  0  0  0  0  0  0  0  0  0  0  0
    4.3732    0.3328   -8.4766 C   0  0  0  0  0  0  0  0  0  0  0  0
    6.8498   -0.0339   -8.2251 C   0  0  0  0  0  0  0  0  0  0  0  0
    5.7583    0.0729   -9.0014 C   0  0  0  0  0  0  0  0  0  0  0  0
    8.2364   -0.2874   -8.7487 C   0  0  0  0  0  0  0  0  0  0  0  0
    9.1332   -2.5809   -8.6928 O   0  0  0  0  0  0  0  0  0  0  0  0
    8.8460   -1.5335   -8.1374 C   0  0  0  0  0  0  0  0  0  0  0  0
    9.1041   -1.3732   -6.8216 O   0  0  0  0  0  0  0  0  0  0  0  0
    8.8833   -0.5685   -6.3955 H   0  0  0  0  0  0  0  0  0  0  0  0
 15 16  2  0  0  0
 16 17  1  0  0  0
 16 14  1  0  0  0
 14 12  1  0  0  0
 12 13  2  0  0  0
 13 11  1  0  0  0
 11  1  1  0  0  0
  1  2  2  0  0  0
  2  3  1  0  0  0
  3  4  2  0  0  0
  4  5  1  0  0  0
  5  6  2  0  0  0
  6  7  1  0  0  0
  7  8  2  0  0  0
  8  9  1  0  0  0
  9 10  2  0  0  0
 10  1  1  0  0  0
  9  4  1  0  0  0
 17 18  1  0  0  0
M  END
> <minimizedAffinity>
-6.83993

$$$$
bridge_LYS46_TYR49_carboxylic_acid_diene_naphthalene


 18 19  0  0  0  0  0  0  0  0999 V2000
    3.6043   -1.5877  -10.3089 C   0  0  0  0  0  0  0  0  0  0  0  0
    3.5845   -0.8916   -9.0956 C   0  0  0  0  0  0  0  0  0  0  0  0
    2.5668   -1.1183   -8.1658 C   0  0  0  0  0  0  0  0  0  0  0  0
    1.5437   -2.0414   -8.4306 C   0  0  0  0  0  0  0  0  0  0  0  0
    0.5140   -2.2795   -7.5055 C   0  0  0  0  0  0  0  0  0  0  0  0
   -0.4980   -3.1992   -7.7854 C   0  0  0  0  0  0  0  0  0  0  0  0
   -0.4938   -3.8917   -8.9925 C   0  0  0  0  0  0  0  0  0  0  0  0
    0.5227   -3.6663   -9.9223 C   0  0  0  0  0  0  0  0  0  0  0  0
    1.5488   -2.7449   -9.6558 C   0  0  0  0  0  0  0  0  0  0  0  0
    2.5792   -2.5070  -10.5812 C   0  0  0  0  0  0  0  0  0  0  0  0
    4.6926   -1.3357  -11.3249 C   0  0  0  0  0  0  0  0  0  0  0  0
    6.9655   -1.5481  -10.2666 C   0  0  0  0  0  0  0  0  0  0  0  0
    5.9427   -0.7884  -10.6932 C   0  0  0  0  0  0  0  0  0  0  0  0
    8.2134   -1.0029   -9.6290 C   0  0  0  0  0  0  0  0  0  0  0  0
    7.3387   -0.0874   -7.5160 O   0  0  0  0  0  0  0  0  0  0  0  0
    8.0579   -0.8598   -8.1279 C   0  0  0  0  0  0  0  0  0  0  0  0
    8.8151   -1.7540   -7.4566 O   0  0  0  0  0  0  0  0  0  0  0  0
    9.3673   -2.3470   -7.9270 H   0  0  0  0  0  0  0  0  0  0  0  0
 15 16  2  0  0  0
 16 17  1  0  0  0
 16 14  1  0  0  0
 14 12  1  0  0  0
 12 13  2  0  0  0
 13 11  1  0  0  0
 11  1  1  0  0  0
  1  2  2  0  0  0
  2  3  1  0  0  0
  3  4  2  0  0  0
  4  5  1  0  0  0
  5  6  2  0  0  0
  6  7  1  0  0  0
  7  8  2  0  0  0
  8  9  1  0  0  0
  9 10  2  0  0  0
 10  1  1  0  0  0
  9  4  1  0  0  0
 17 18  1  0  0  0
M  END
> <minimizedAffinity>
-6.58185

$$$$
bridge_LYS46_TYR49_carboxylic_acid_diene_naphthalene


 18 19  0  0  0  0  0  0  0  0999 V2000
    3.4765   -1.7921  -10.4030 C   0  0  0  0  0  0  0  0  0  0  0  0
    3.5747   -1.0299   -9.2340 C   0  0  0  0  0  0  0  0  0  0  0  0
    2.6193   -1.1578   -8.2229 C   0  0  0  0  0  0  0  0  0  0  0  0
    1.5417   -2.0461   -8.3604 C   0  0  0  0  0  0  0  0  0  0  0  0
    0.5734   -2.1851   -7.3525 C   0  0  0  0  0  0  0  0  0  0  0  0
   -0.4940   -3.0714   -7.5059 C   0  0  0  0  0  0  0  0  0  0  0  0
   -0.6072   -3.8289   -8.6679 C   0  0  0  0  0  0  0  0  0  0  0  0
    0.3471   -3.7022   -9.6788 C   0  0  0  0  0  0  0  0  0  0  0  0
    1.4277   -2.8157   -9.5397 C   0  0  0  0  0  0  0  0  0  0  0  0
    2.3965   -2.6768  -10.5480 C   0  0  0  0  0  0  0  0  0  0  0  0
    4.4971   -1.6469  -11.5064 C   0  0  0  0  0  0  0  0  0  0  0  0
    4.5421   -2.6886  -13.7964 C   0  0  0  0  0  0  0  0  0  0  0  0
    3.9177   -1.9556  -12.8593 C   0  0  0  0  0  0  0  0  0  0  0  0
    3.9668   -2.9928  -15.1520 C   0  0  0  0  0  0  0  0  0  0  0  0
    3.9791   -5.3770  -15.7711 O   0  0  0  0  0  0  0  0  0  0  0  0
    4.5211   -4.2854  -15.7176 C   0  0  0  0  0  0  0  0  0  0  0  0
    5.7564   -4.1180  -16.2368 O   0  0  0  0  0  0  0  0  0  0  0  0
    6.1723   -3.2794  -16.1954 H   0  0  0  0  0  0  0  0  0  0  0  0
 15 16  2  0  0  0
 16 17  1  0  0  0
 16 14  1  0  0  0
 14 12  1  0  0  0
 12 13  2  0  0  0
 13 11  1  0  0  0
 11  1  1  0  0  0
  1  2  2  0  0  0
  2  3  1  0  0  0
  3  4  2  0  0  0
  4  5  1  0  0  0
  5  6  2  0  0  0
  6  7  1  0  0  0
  7  8  2  0  0  0
  8  9  1  0  0  0
  9 10  2  0  0  0
 10  1  1  0  0  0
  9  4  1  0  0  0
 17 18  1  0  0  0
M  END
> <minimizedAffinity>
-6.43761

$$$$
bridge_LYS46_TYR49_carboxylic_acid_diene_naphthalene


 18 19  0  0  0  0  0  0  0  0999 V2000
    4.3695   -0.3623   -9.6528 C   0  0  0  0  0  0  0  0  0  0  0  0
    3.7650    0.6848  -10.3567 C   0  0  0  0  0  0  0  0  0  0  0  0
    3.7700    1.9820   -9.8385 C   0  0  0  0  0  0  0  0  0  0  0  0
    4.3741    2.2602   -8.6029 C   0  0  0  0  0  0  0  0  0  0  0  0
    4.3865    3.5594   -8.0692 C   0  0  0  0  0  0  0  0  0  0  0  0
    4.9895    3.8189   -6.8373 C   0  0  0  0  0  0  0  0  0  0  0  0
    5.5867    2.7840   -6.1238 C   0  0  0  0  0  0  0  0  0  0  0  0
    5.5827    1.4874   -6.6407 C   0  0  0  0  0  0  0  0  0  0  0  0
    4.9811    1.2095   -7.8792 C   0  0  0  0  0  0  0  0  0  0  0  0
    4.9690   -0.0902   -8.4132 C   0  0  0  0  0  0  0  0  0  0  0  0
    4.3538   -1.7696  -10.2000 C   0  0  0  0  0  0  0  0  0  0  0  0
    2.4066   -2.7946   -8.9797 C   0  0  0  0  0  0  0  0  0  0  0  0
    2.9875   -2.3930  -10.1228 C   0  0  0  0  0  0  0  0  0  0  0  0
    1.0432   -3.4239   -8.9015 C   0  0  0  0  0  0  0  0  0  0  0  0
   -0.8883   -3.1800   -7.3922 O   0  0  0  0  0  0  0  0  0  0  0  0
    0.2601   -2.9153   -7.7072 C   0  0  0  0  0  0  0  0  0  0  0  0
    1.0046   -2.1021   -6.9274 O   0  0  0  0  0  0  0  0  0  0  0  0
    1.8866   -1.8991   -7.1698 H   0  0  0  0  0  0  0  0  0  0  0  0
 15 16  2  0  0  0
 16 17  1  0  0  0
 16 14  1  0  0  0
 14 12  1  0  0  0
 12 13  2  0  0  0
 13 11  1  0  0  0
 11  1  1  0  0  0
  1  2  2  0  0  0
  2  3  1  0  0  0
  3  4  2  0  0  0
  4  5  1  0  0  0
  5  6  2  0  0  0
  6  7  1  0  0  0
  7  8  2  0  0  0
  8  9  1  0  0  0
  9 10  2  0  0  0
 10  1  1  0  0  0
  9  4  1  0  0  0
 17 18  1  0  0  0
M  END
> <minimizedAffinity>
-6.15095

$$$$
bridge_LYS46_TYR49_carboxylic_acid_diene_naphthalene


 18 19  0  0  0  0  0  0  0  0999 V2000
    3.8135   -1.6276  -10.0361 C   0  0  0  0  0  0  0  0  0  0  0  0
    3.6324   -0.8493   -8.8878 C   0  0  0  0  0  0  0  0  0  0  0  0
    2.5206   -1.0481   -8.0658 C   0  0  0  0  0  0  0  0  0  0  0  0
    1.5624   -2.0252   -8.3764 C   0  0  0  0  0  0  0  0  0  0  0  0
    0.4394   -2.2361   -7.5596 C   0  0  0  0  0  0  0  0  0  0  0  0
   -0.5060   -3.2104   -7.8841 C   0  0  0  0  0  0  0  0  0  0  0  0
   -0.3412   -3.9852   -9.0284 C   0  0  0  0  0  0  0  0  0  0  0  0
    0.7696   -3.7877   -9.8504 C   0  0  0  0  0  0  0  0  0  0  0  0
    1.7305   -2.8122   -9.5376 C   0  0  0  0  0  0  0  0  0  0  0  0
    2.8542   -2.6014  -10.3547 C   0  0  0  0  0  0  0  0  0  0  0  0
    5.0049   -1.4070  -10.9374 C   0  0  0  0  0  0  0  0  0  0  0  0
    6.8053   -0.4603   -9.4562 C   0  0  0  0  0  0  0  0  0  0  0  0
    5.8991   -0.3067  -10.4364 C   0  0  0  0  0  0  0  0  0  0  0  0
    7.6957    0.6405   -8.9498 C   0  0  0  0  0  0  0  0  0  0  0  0
    7.5594    2.1152   -6.9815 O   0  0  0  0  0  0  0  0  0  0  0  0
    7.3242    1.0566   -7.5403 C   0  0  0  0  0  0  0  0  0  0  0  0
    6.6195    0.0975   -6.9023 O   0  0  0  0  0  0  0  0  0  0  0  0
    6.4391   -0.7154   -7.3320 H   0  0  0  0  0  0  0  0  0  0  0  0
 15 16  2  0  0  0
 16 17  1  0  0  0
 16 14  1  0  0  0
 14 12  1  0  0  0
 12 13  2  0  0  0
 13 11  1  0  0  0
 11  1  1  0  0  0
  1  2  2  0  0  0
  2  3  1  0  0  0
  3  4  2  0  0  0
  4  5  1  0  0  0
  5  6  2  0  0  0
  6  7  1  0  0  0
  7  8  2  0  0  0
  8  9  1  0  0  0
  9 10  2  0  0  0
 10  1  1  0  0  0
  9  4  1  0  0  0
 17 18  1  0  0  0
M  END
> <minimizedAffinity>
-6.11897

$$$$
bridge_LYS46_TYR49_carboxylic_acid_diene_naphthalene


 18 19  0  0  0  0  0  0  0  0999 V2000
    4.7203   -1.5449  -10.6983 C   0  0  0  0  0  0  0  0  0  0  0  0
    5.0963   -2.1835  -11.8849 C   0  0  0  0  0  0  0  0  0  0  0  0
    6.4403   -2.4641  -12.1427 C   0  0  0  0  0  0  0  0  0  0  0  0
    7.4384   -2.1075  -11.2229 C   0  0  0  0  0  0  0  0  0  0  0  0
    8.7936   -2.3829  -11.4687 C   0  0  0  0  0  0  0  0  0  0  0  0
    9.7745   -2.0192  -10.5446 C   0  0  0  0  0  0  0  0  0  0  0  0
    9.4136   -1.3759   -9.3645 C   0  0  0  0  0  0  0  0  0  0  0  0
    8.0709   -1.0952   -9.1056 C   0  0  0  0  0  0  0  0  0  0  0  0
    7.0715   -1.4553  -10.0245 C   0  0  0  0  0  0  0  0  0  0  0  0
    5.7157   -1.1801   -9.7785 C   0  0  0  0  0  0  0  0  0  0  0  0
    3.2709   -1.2245  -10.4208 C   0  0  0  0  0  0  0  0  0  0  0  0
    2.0227   -2.7478   -8.8547 C   0  0  0  0  0  0  0  0  0  0  0  0
    2.8354   -1.6981   -9.0616 C   0  0  0  0  0  0  0  0  0  0  0  0
    1.5813   -3.2187   -7.4965 C   0  0  0  0  0  0  0  0  0  0  0  0
   -0.8421   -3.0084   -7.8848 O   0  0  0  0  0  0  0  0  0  0  0  0
    0.1502   -2.8145   -7.2022 C   0  0  0  0  0  0  0  0  0  0  0  0
    0.0376   -2.1998   -6.0051 O   0  0  0  0  0  0  0  0  0  0  0  0
    0.8001   -2.0511   -5.4812 H   0  0  0  0  0  0  0  0  0  0  0  0
 15 16  2  0  0  0
 16 17  1  0  0  0
 16 14  1  0  0  0
 14 12  1  0  0  0
 12 13  2  0  0  0
 13 11  1  0  0  0
 11  1  1  0  0  0
  1  2  2  0  0  0
  2  3  1  0  0  0
  3  4  2  0  0  0
  4  5  1  0  0  0
  5  6  2  0  0  0
  6  7  1  0  0  0
  7  8  2  0  0  0
  8  9  1  0  0  0
  9 10  2  0  0  0
 10  1  1  0  0  0
  9  4  1  0  0  0
 17 18  1  0  0  0
M  END
> <minimizedAffinity>
-6.00931

$$$$
bridge_LYS46_TYR49_carboxylic_acid_diene_naphthalene


 18 19  0  0  0  0  0  0  0  0999 V2000
    3.5419   -0.8269   -8.9972 C   0  0  0  0  0  0  0  0  0  0  0  0
    3.5851   -1.4466  -10.2507 C   0  0  0  0  0  0  0  0  0  0  0  0
    2.6038   -2.3705  -10.6179 C   0  0  0  0  0  0  0  0  0  0  0  0
    1.5611   -2.6996   -9.7384 C   0  0  0  0  0  0  0  0  0  0  0  0
    0.5678   -3.6269  -10.0937 C   0  0  0  0  0  0  0  0  0  0  0  0
   -0.4613   -3.9454   -9.2060 C   0  0  0  0  0  0  0  0  0  0  0  0
   -0.5102   -3.3419   -7.9529 C   0  0  0  0  0  0  0  0  0  0  0  0
    0.4696   -2.4183   -7.5849 C   0  0  0  0  0  0  0  0  0  0  0  0
    1.5112   -2.0861   -8.4666 C   0  0  0  0  0  0  0  0  0  0  0  0
    2.5048   -1.1582   -8.1113 C   0  0  0  0  0  0  0  0  0  0  0  0
    4.6084    0.1608   -8.5880 C   0  0  0  0  0  0  0  0  0  0  0  0
    4.6342    2.3702   -9.7917 C   0  0  0  0  0  0  0  0  0  0  0  0
    4.9946    1.0781   -9.7153 C   0  0  0  0  0  0  0  0  0  0  0  0
    5.0143    3.2870  -10.9214 C   0  0  0  0  0  0  0  0  0  0  0  0
    4.9348    5.5263   -9.8981 O   0  0  0  0  0  0  0  0  0  0  0  0
    4.5131    4.6987  -10.6888 C   0  0  0  0  0  0  0  0  0  0  0  0
    3.4967    5.0145  -11.5200 O   0  0  0  0  0  0  0  0  0  0  0  0
    3.1731    4.3784  -12.1272 H   0  0  0  0  0  0  0  0  0  0  0  0
 15 16  2  0  0  0
 16 17  1  0  0  0
 16 14  1  0  0  0
 14 12  1  0  0  0
 12 13  2  0  0  0
 13 11  1  0  0  0
 11  1  1  0  0  0
  1  2  2  0  0  0
  2  3  1  0  0  0
  3  4  2  0  0  0
  4  5  1  0  0  0
  5  6  2  0  0  0
  6  7  1  0  0  0
  7  8  2  0  0  0
  8  9  1  0  0  0
  9 10  2  0  0  0
 10  1  1  0  0  0
  9  4  1  0  0  0
 17 18  1  0  0  0
M  END
> <minimizedAffinity>
-5.90465

$$$$
bridge_LYS46_TYR49_carboxylic_acid_diene_naphthalene


 18 19  0  0  0  0  0  0  0  0999 V2000
    1.9340   -2.2562  -12.0140 C   0  0  0  0  0  0  0  0  0  0  0  0
    2.8034   -1.4542  -11.2669 C   0  0  0  0  0  0  0  0  0  0  0  0
    2.6767   -1.3758   -9.8779 C   0  0  0  0  0  0  0  0  0  0  0  0
    1.6750   -2.0928   -9.2058 C   0  0  0  0  0  0  0  0  0  0  0  0
    1.5354   -2.0235   -7.8099 C   0  0  0  0  0  0  0  0  0  0  0  0
    0.5318   -2.7408   -7.1568 C   0  0  0  0  0  0  0  0  0  0  0  0
   -0.3443   -3.5355   -7.8900 C   0  0  0  0  0  0  0  0  0  0  0  0
   -0.2186   -3.6149   -9.2780 C   0  0  0  0  0  0  0  0  0  0  0  0
    0.7863   -2.9002   -9.9504 C   0  0  0  0  0  0  0  0  0  0  0  0
    0.9261   -2.9697  -11.3469 C   0  0  0  0  0  0  0  0  0  0  0  0
    2.0556   -2.3329  -13.5173 C   0  0  0  0  0  0  0  0  0  0  0  0
    0.9283   -4.1861  -14.7925 C   0  0  0  0  0  0  0  0  0  0  0  0
    0.8695   -3.0083  -14.1486 C   0  0  0  0  0  0  0  0  0  0  0  0
   -0.2554   -4.8597  -15.4298 C   0  0  0  0  0  0  0  0  0  0  0  0
   -0.9533   -5.1240  -17.7773 O   0  0  0  0  0  0  0  0  0  0  0  0
   -0.0857   -4.9865  -16.9308 C   0  0  0  0  0  0  0  0  0  0  0  0
    1.2099   -4.8923  -17.2999 O   0  0  0  0  0  0  0  0  0  0  0  0
    1.8759   -4.7867  -16.6493 H   0  0  0  0  0  0  0  0  0  0  0  0
 15 16  2  0  0  0
 16 17  1  0  0  0
 16 14  1  0  0  0
 14 12  1  0  0  0
 12 13  2  0  0  0
 13 11  1  0  0  0
 11  1  1  0  0  0
  1  2  2  0  0  0
  2  3  1  0  0  0
  3  4  2  0  0  0
  4  5  1  0  0  0
  5  6  2  0  0  0
  6  7  1  0  0  0
  7  8  2  0  0  0
  8  9  1  0  0  0
  9 10  2  0  0  0
 10  1  1  0  0  0
  9  4  1  0  0  0
 17 18  1  0  0  0
M  END
> <minimizedAffinity>
-5.82093

$$$$
