direct_link_TRP_ALA_PRO


 19 21  0  0  0  0  0  0  0  0999 V2000
    4.3427   -2.5693  -11.1357 C   0  0  0  0  0  0  0  0  0  0  0  0
    5.7083   -2.3163  -11.2537 C   0  0  0  0  0  0  0  0  0  0  0  0
    6.3276   -1.3407  -10.4731 C   0  0  0  0  0  0  0  0  0  0  0  0
    5.5273   -0.6297   -9.5740 C   0  0  0  0  0  0  0  0  0  0  0  0
    5.8695    0.3744   -8.6954 N   0  0  0  0  0  0  0  0  0  0  0  0
    4.7655    0.7938   -8.0037 C   0  0  0  0  0  0  0  0  0  0  0  0
    3.6927    0.0495   -8.4357 C   0  0  0  0  0  0  0  0  0  0  0  0
    4.1580   -0.8600   -9.4312 C   0  0  0  0  0  0  0  0  0  0  0  0
    3.5354   -1.8568  -10.2241 C   0  0  0  0  0  0  0  0  0  0  0  0
    6.7773    0.7379   -8.5815 H   0  0  0  0  0  0  0  0  0  0  0  0
    2.0573   -2.1594  -10.1498 C   0  0  0  0  0  0  0  0  0  0  0  0
    1.8080   -3.5173   -9.4830 C   0  0  0  0  0  0  0  0  0  0  0  0
    0.9791   -3.4945   -8.1960 C   0  0  0  0  0  0  0  0  0  0  0  0
   -0.5333   -3.5163   -8.3833 C   0  0  0  0  0  0  0  0  0  0  0  0
   -1.0497   -3.2129   -6.9886 C   0  0  0  0  0  0  0  0  0  0  0  0
   -0.0175   -2.2893   -6.4047 N   0  0  0  0  0  0  0  0  0  0  0  0
    1.1819   -2.2723   -7.3127 C   0  0  0  0  0  0  0  0  0  0  0  0
    0.2565   -2.6213   -5.4799 H   0  0  0  0  0  0  0  0  0  0  0  0
   -0.4017   -1.3484   -6.3181 H   0  0  0  0  0  0  0  0  0  0  0  0
  1  2  2  0  0  0
  2  3  1  0  0  0
  3  4  2  0  0  0
  4  5  1  0  0  0
  5  6  1  0  0  0
  6  7  2  0  0  0
  7  8  1  0  0  0
  8  9  2  0  0  0
  9 11  1  0  0  0
 11 12  1  0  0  0
 13 12  1  0  0  0
 13 14  1  0  0  0
 14 15  1  0  0  0
 15 16  1  0  0  0
 16 17  1  0  0  0
  9  1  1  0  0  0
 17 13  1  0  0  0
  8  4  1  0  0  0
  5 10  1  0  0  0
 16 18  1  0  0  0
 16 19  1  0  0  0
M  CHG 1  16   1
M  END
> <minimizedAffinity>
-6.11918

$$$$
direct_link_TRP_ALA_PRO


 19 21  0  0  0  0  0  0  0  0999 V2000
    3.8128   -0.3670   -8.7814 C   0  0  0  0  0  0  0  0  0  0  0  0
    5.0237    0.2507   -8.4734 C   0  0  0  0  0  0  0  0  0  0  0  0
    6.1975   -0.0976   -9.1410 C   0  0  0  0  0  0  0  0  0  0  0  0
    6.1110   -1.0871  -10.1247 C   0  0  0  0  0  0  0  0  0  0  0  0
    7.0966   -1.6193  -10.9264 N   0  0  0  0  0  0  0  0  0  0  0  0
    6.5693   -2.5748  -11.7524 C   0  0  0  0  0  0  0  0  0  0  0  0
    5.2227   -2.6616  -11.4867 C   0  0  0  0  0  0  0  0  0  0  0  0
    4.9140   -1.7235  -10.4573 C   0  0  0  0  0  0  0  0  0  0  0  0
    3.7232   -1.3612   -9.7785 C   0  0  0  0  0  0  0  0  0  0  0  0
    8.0436   -1.3510  -10.9079 H   0  0  0  0  0  0  0  0  0  0  0  0
    2.3887   -2.0105  -10.0596 C   0  0  0  0  0  0  0  0  0  0  0  0
    2.2686   -3.3551   -9.3327 C   0  0  0  0  0  0  0  0  0  0  0  0
    1.1846   -3.4445   -8.2551 C   0  0  0  0  0  0  0  0  0  0  0  0
   -0.2504   -3.5067   -8.7648 C   0  0  0  0  0  0  0  0  0  0  0  0
   -1.0658   -3.3125   -7.4993 C   0  0  0  0  0  0  0  0  0  0  0  0
   -0.2269   -2.3934   -6.6560 N   0  0  0  0  0  0  0  0  0  0  0  0
    1.1361   -2.2759   -7.2820 C   0  0  0  0  0  0  0  0  0  0  0  0
   -0.1405   -2.7749   -5.7140 H   0  0  0  0  0  0  0  0  0  0  0  0
   -0.6653   -1.4740   -6.6018 H   0  0  0  0  0  0  0  0  0  0  0  0
  1  2  2  0  0  0
  2  3  1  0  0  0
  3  4  2  0  0  0
  4  5  1  0  0  0
  5  6  1  0  0  0
  6  7  2  0  0  0
  7  8  1  0  0  0
  8  9  2  0  0  0
  9 11  1  0  0  0
 11 12  1  0  0  0
 13 12  1  0  0  0
 13 14  1  0  0  0
 14 15  1  0  0  0
 15 16  1  0  0  0
 16 17  1  0  0  0
  9  1  1  0  0  0
 17 13  1  0  0  0
  8  4  1  0  0  0
  5 10  1  0  0  0
 16 18  1  0  0  0
 16 19  1  0  0  0
M  CHG 1  16   1
M  END
> <minimizedAffinity>
-5.73026

$$$$
direct_link_TRP_ALA_PRO


 19 21  0  0  0  0  0  0  0  0999 V2000
    3.8973   -2.4343  -10.5967 C   0  0  0  0  0  0  0  0  0  0  0  0
    5.1226   -2.6175  -11.2355 C   0  0  0  0  0  0  0  0  0  0  0  0
    5.2263   -2.5428  -12.6242 C   0  0  0  0  0  0  0  0  0  0  0  0
    4.0580   -2.2801  -13.3453 C   0  0  0  0  0  0  0  0  0  0  0  0
    3.8721   -2.1563  -14.7045 N   0  0  0  0  0  0  0  0  0  0  0  0
    2.5560   -1.9004  -14.9802 C   0  0  0  0  0  0  0  0  0  0  0  0
    1.8789   -1.8532  -13.7840 C   0  0  0  0  0  0  0  0  0  0  0  0
    2.8167   -2.0907  -12.7357 C   0  0  0  0  0  0  0  0  0  0  0  0
    2.7188   -2.1627  -11.3231 C   0  0  0  0  0  0  0  0  0  0  0  0
    4.5832   -2.2397  -15.3802 H   0  0  0  0  0  0  0  0  0  0  0  0
    1.4143   -1.9902  -10.5813 C   0  0  0  0  0  0  0  0  0  0  0  0
    0.8719   -3.3422  -10.1033 C   0  0  0  0  0  0  0  0  0  0  0  0
    0.5023   -3.4342   -8.6204 C   0  0  0  0  0  0  0  0  0  0  0  0
   -0.9573   -3.1519   -8.2842 C   0  0  0  0  0  0  0  0  0  0  0  0
   -0.9404   -3.0501   -6.7699 C   0  0  0  0  0  0  0  0  0  0  0  0
    0.4050   -2.4590   -6.4537 N   0  0  0  0  0  0  0  0  0  0  0  0
    1.2415   -2.4702   -7.7042 C   0  0  0  0  0  0  0  0  0  0  0  0
    0.8622   -3.0135   -5.7299 H   0  0  0  0  0  0  0  0  0  0  0  0
    0.2945   -1.5024   -6.1176 H   0  0  0  0  0  0  0  0  0  0  0  0
  1  2  2  0  0  0
  2  3  1  0  0  0
  3  4  2  0  0  0
  4  5  1  0  0  0
  5  6  1  0  0  0
  6  7  2  0  0  0
  7  8  1  0  0  0
  8  9  2  0  0  0
  9 11  1  0  0  0
 11 12  1  0  0  0
 13 12  1  0  0  0
 13 14  1  0  0  0
 14 15  1  0  0  0
 15 16  1  0  0  0
 16 17  1  0  0  0
  9  1  1  0  0  0
 17 13  1  0  0  0
  8  4  1  0  0  0
  5 10  1  0  0  0
 16 18  1  0  0  0
 16 19  1  0  0  0
M  CHG 1  16   1
M  END
> <minimizedAffinity>
-5.72587

$$$$
direct_link_TRP_ALA_PRO


 19 21  0  0  0  0  0  0  0  0999 V2000
    1.6720   -0.7917  -11.3228 C   0  0  0  0  0  0  0  0  0  0  0  0
    1.5431    0.5500  -11.6776 C   0  0  0  0  0  0  0  0  0  0  0  0
    2.1893    1.5498  -10.9513 C   0  0  0  0  0  0  0  0  0  0  0  0
    2.9656    1.1539   -9.8582 C   0  0  0  0  0  0  0  0  0  0  0  0
    3.7001    1.9176   -8.9781 N   0  0  0  0  0  0  0  0  0  0  0  0
    4.3070    1.1161   -8.0493 C   0  0  0  0  0  0  0  0  0  0  0  0
    3.9656   -0.1858   -8.3323 C   0  0  0  0  0  0  0  0  0  0  0  0
    3.1158   -0.1807   -9.4781 C   0  0  0  0  0  0  0  0  0  0  0  0
    2.4604   -1.1929  -10.2238 C   0  0  0  0  0  0  0  0  0  0  0  0
    3.7774    2.8985   -9.0122 H   0  0  0  0  0  0  0  0  0  0  0  0
    2.5511   -2.6592   -9.8729 C   0  0  0  0  0  0  0  0  0  0  0  0
    1.1558   -3.2861   -9.7692 C   0  0  0  0  0  0  0  0  0  0  0  0
    0.5699   -3.3979   -8.3591 C   0  0  0  0  0  0  0  0  0  0  0  0
   -0.9393   -3.2124   -8.2538 C   0  0  0  0  0  0  0  0  0  0  0  0
   -1.1615   -3.1051   -6.7561 C   0  0  0  0  0  0  0  0  0  0  0  0
    0.0780   -2.4248   -6.2459 N   0  0  0  0  0  0  0  0  0  0  0  0
    1.0952   -2.3840   -7.3536 C   0  0  0  0  0  0  0  0  0  0  0  0
    0.4539   -2.9453   -5.4534 H   0  0  0  0  0  0  0  0  0  0  0  0
   -0.1450   -1.4766   -5.9433 H   0  0  0  0  0  0  0  0  0  0  0  0
  1  2  2  0  0  0
  2  3  1  0  0  0
  3  4  2  0  0  0
  4  5  1  0  0  0
  5  6  1  0  0  0
  6  7  2  0  0  0
  7  8  1  0  0  0
  8  9  2  0  0  0
  9 11  1  0  0  0
 11 12  1  0  0  0
 13 12  1  0  0  0
 13 14  1  0  0  0
 14 15  1  0  0  0
 15 16  1  0  0  0
 16 17  1  0  0  0
  9  1  1  0  0  0
 17 13  1  0  0  0
  8  4  1  0  0  0
  5 10  1  0  0  0
 16 18  1  0  0  0
 16 19  1  0  0  0
M  CHG 1  16   1
M  END
> <minimizedAffinity>
-5.69300

$$$$
direct_link_TRP_ALA_PRO


 19 21  0  0  0  0  0  0  0  0999 V2000
    1.5563   -2.1119  -12.8846 C   0  0  0  0  0  0  0  0  0  0  0  0
    2.0999   -2.2612  -14.1593 C   0  0  0  0  0  0  0  0  0  0  0  0
    3.4691   -2.4571  -14.3374 C   0  0  0  0  0  0  0  0  0  0  0  0
    4.2697   -2.4956  -13.1922 C   0  0  0  0  0  0  0  0  0  0  0  0
    5.6310   -2.6707  -13.0758 N   0  0  0  0  0  0  0  0  0  0  0  0
    6.0011   -2.6367  -11.7585 C   0  0  0  0  0  0  0  0  0  0  0  0
    4.8646   -2.4412  -11.0090 C   0  0  0  0  0  0  0  0  0  0  0  0
    3.7562   -2.3508  -11.9023 C   0  0  0  0  0  0  0  0  0  0  0  0
    2.3626   -2.1571  -11.7277 C   0  0  0  0  0  0  0  0  0  0  0  0
    6.2487   -2.8013  -13.8312 H   0  0  0  0  0  0  0  0  0  0  0  0
    1.7237   -1.9719  -10.3715 C   0  0  0  0  0  0  0  0  0  0  0  0
    0.8761   -3.1921   -9.9930 C   0  0  0  0  0  0  0  0  0  0  0  0
    0.5104   -3.3259   -8.5123 C   0  0  0  0  0  0  0  0  0  0  0  0
   -0.9742   -3.2159   -8.1856 C   0  0  0  0  0  0  0  0  0  0  0  0
   -0.9789   -3.1121   -6.6712 C   0  0  0  0  0  0  0  0  0  0  0  0
    0.2863   -2.3679   -6.3475 N   0  0  0  0  0  0  0  0  0  0  0  0
    1.1262   -2.2819   -7.5927 C   0  0  0  0  0  0  0  0  0  0  0  0
    0.8005   -2.8648   -5.6201 H   0  0  0  0  0  0  0  0  0  0  0  0
    0.0628   -1.4305   -6.0131 H   0  0  0  0  0  0  0  0  0  0  0  0
  1  2  2  0  0  0
  2  3  1  0  0  0
  3  4  2  0  0  0
  4  5  1  0  0  0
  5  6  1  0  0  0
  6  7  2  0  0  0
  7  8  1  0  0  0
  8  9  2  0  0  0
  9 11  1  0  0  0
 11 12  1  0  0  0
 13 12  1  0  0  0
 13 14  1  0  0  0
 14 15  1  0  0  0
 15 16  1  0  0  0
 16 17  1  0  0  0
  9  1  1  0  0  0
 17 13  1  0  0  0
  8  4  1  0  0  0
  5 10  1  0  0  0
 16 18  1  0  0  0
 16 19  1  0  0  0
M  CHG 1  16   1
M  END
> <minimizedAffinity>
-5.68748

$$$$
direct_link_TRP_ALA_PRO


 19 21  0  0  0  0  0  0  0  0999 V2000
    1.5733   -1.9151   -7.9097 C   0  0  0  0  0  0  0  0  0  0  0  0
    0.8637   -3.1144   -7.9403 C   0  0  0  0  0  0  0  0  0  0  0  0
    0.4895   -3.6963   -9.1511 C   0  0  0  0  0  0  0  0  0  0  0  0
    0.8513   -3.0307  -10.3260 C   0  0  0  0  0  0  0  0  0  0  0  0
    0.6140   -3.3720  -11.6392 N   0  0  0  0  0  0  0  0  0  0  0  0
    1.1443   -2.4277  -12.4762 C   0  0  0  0  0  0  0  0  0  0  0  0
    1.7376   -1.4625  -11.6964 C   0  0  0  0  0  0  0  0  0  0  0  0
    1.5625   -1.8297  -10.3292 C   0  0  0  0  0  0  0  0  0  0  0  0
    1.9445   -1.2459   -9.0950 C   0  0  0  0  0  0  0  0  0  0  0  0
    0.1324   -4.1787  -11.9334 H   0  0  0  0  0  0  0  0  0  0  0  0
    2.6978    0.0602   -9.0036 C   0  0  0  0  0  0  0  0  0  0  0  0
    4.1189   -0.1618   -8.4729 C   0  0  0  0  0  0  0  0  0  0  0  0
    5.2292   -0.2268   -9.5251 C   0  0  0  0  0  0  0  0  0  0  0  0
    5.3187   -1.5291  -10.3119 C   0  0  0  0  0  0  0  0  0  0  0  0
    6.6399   -1.3888  -11.0459 C   0  0  0  0  0  0  0  0  0  0  0  0
    7.5054   -0.6010  -10.1027 N   0  0  0  0  0  0  0  0  0  0  0  0
    6.6444   -0.0705   -8.9887 C   0  0  0  0  0  0  0  0  0  0  0  0
    7.9384    0.1760  -10.6018 H   0  0  0  0  0  0  0  0  0  0  0  0
    8.2384   -1.1990   -9.7213 H   0  0  0  0  0  0  0  0  0  0  0  0
  1  2  2  0  0  0
  2  3  1  0  0  0
  3  4  2  0  0  0
  4  5  1  0  0  0
  5  6  1  0  0  0
  6  7  2  0  0  0
  7  8  1  0  0  0
  8  9  2  0  0  0
  9 11  1  0  0  0
 11 12  1  0  0  0
 13 12  1  0  0  0
 13 14  1  0  0  0
 14 15  1  0  0  0
 15 16  1  0  0  0
 16 17  1  0  0  0
  9  1  1  0  0  0
 17 13  1  0  0  0
  8  4  1  0  0  0
  5 10  1  0  0  0
 16 18  1  0  0  0
 16 19  1  0  0  0
M  CHG 1  16   1
M  END
> <minimizedAffinity>
-5.58511

$$$$
direct_link_TRP_ALA_PRO


 19 21  0  0  0  0  0  0  0  0999 V2000
    1.4145   -2.2715   -7.7861 C   0  0  0  0  0  0  0  0  0  0  0  0
    0.5728   -3.3622   -7.9976 C   0  0  0  0  0  0  0  0  0  0  0  0
    0.2390   -3.7715   -9.2883 C   0  0  0  0  0  0  0  0  0  0  0  0
    0.7782   -3.0465  -10.3549 C   0  0  0  0  0  0  0  0  0  0  0  0
    0.6174   -3.2257  -11.7111 N   0  0  0  0  0  0  0  0  0  0  0  0
    1.3271   -2.2799  -12.4003 C   0  0  0  0  0  0  0  0  0  0  0  0
    1.9607   -1.4782  -11.4797 C   0  0  0  0  0  0  0  0  0  0  0  0
    1.6247   -1.9511  -10.1765 C   0  0  0  0  0  0  0  0  0  0  0  0
    1.9645   -1.5431   -8.8619 C   0  0  0  0  0  0  0  0  0  0  0  0
    0.0708   -3.9323  -12.1250 H   0  0  0  0  0  0  0  0  0  0  0  0
    2.8568   -0.3585   -8.5755 C   0  0  0  0  0  0  0  0  0  0  0  0
    4.3097   -0.6598   -8.9615 C   0  0  0  0  0  0  0  0  0  0  0  0
    5.3243    0.4543   -8.6904 C   0  0  0  0  0  0  0  0  0  0  0  0
    6.7633   -0.0000   -8.4759 C   0  0  0  0  0  0  0  0  0  0  0  0
    7.4426    1.2604   -7.9721 C   0  0  0  0  0  0  0  0  0  0  0  0
    6.3741    1.9680   -7.1867 N   0  0  0  0  0  0  0  0  0  0  0  0
    5.0564    1.2905   -7.4479 C   0  0  0  0  0  0  0  0  0  0  0  0
    6.3224    2.9439   -7.4791 H   0  0  0  0  0  0  0  0  0  0  0  0
    6.5925    1.9320   -6.1910 H   0  0  0  0  0  0  0  0  0  0  0  0
  1  2  2  0  0  0
  2  3  1  0  0  0
  3  4  2  0  0  0
  4  5  1  0  0  0
  5  6  1  0  0  0
  6  7  2  0  0  0
  7  8  1  0  0  0
  8  9  2  0  0  0
  9 11  1  0  0  0
 11 12  1  0  0  0
 13 12  1  0  0  0
 13 14  1  0  0  0
 14 15  1  0  0  0
 15 16  1  0  0  0
 16 17  1  0  0  0
  9  1  1  0  0  0
 17 13  1  0  0  0
  8  4  1  0  0  0
  5 10  1  0  0  0
 16 18  1  0  0  0
 16 19  1  0  0  0
M  CHG 1  16   1
M  END
> <minimizedAffinity>
-5.52827

$$$$
direct_link_TRP_ALA_PRO


 19 21  0  0  0  0  0  0  0  0999 V2000
    5.0280   -1.2479  -10.2415 C   0  0  0  0  0  0  0  0  0  0  0  0
    6.4043   -1.4068  -10.3943 C   0  0  0  0  0  0  0  0  0  0  0  0
    7.3007   -0.7473   -9.5538 C   0  0  0  0  0  0  0  0  0  0  0  0
    6.7658    0.0761   -8.5589 C   0  0  0  0  0  0  0  0  0  0  0  0
    7.4082    0.8360   -7.6063 N   0  0  0  0  0  0  0  0  0  0  0  0
    6.4926    1.4955   -6.8315 C   0  0  0  0  0  0  0  0  0  0  0  0
    5.2390    1.1563   -7.2840 C   0  0  0  0  0  0  0  0  0  0  0  0
    5.3933    0.2552   -8.3791 C   0  0  0  0  0  0  0  0  0  0  0  0
    4.4870   -0.4222   -9.2335 C   0  0  0  0  0  0  0  0  0  0  0  0
    8.3849    0.8961   -7.4984 H   0  0  0  0  0  0  0  0  0  0  0  0
    2.9880   -0.2721   -9.1238 C   0  0  0  0  0  0  0  0  0  0  0  0
    2.3844   -1.3975   -8.2754 C   0  0  0  0  0  0  0  0  0  0  0  0
    1.2389   -2.1852   -8.9169 C   0  0  0  0  0  0  0  0  0  0  0  0
    1.0996   -3.6344   -8.4659 C   0  0  0  0  0  0  0  0  0  0  0  0
    0.0927   -4.1985   -9.4518 C   0  0  0  0  0  0  0  0  0  0  0  0
    0.3697   -3.4560  -10.7291 N   0  0  0  0  0  0  0  0  0  0  0  0
    1.3086   -2.3189  -10.4309 C   0  0  0  0  0  0  0  0  0  0  0  0
   -0.5030   -3.0900  -11.1097 H   0  0  0  0  0  0  0  0  0  0  0  0
    0.7910   -4.0849  -11.4128 H   0  0  0  0  0  0  0  0  0  0  0  0
  1  2  2  0  0  0
  2  3  1  0  0  0
  3  4  2  0  0  0
  4  5  1  0  0  0
  5  6  1  0  0  0
  6  7  2  0  0  0
  7  8  1  0  0  0
  8  9  2  0  0  0
  9 11  1  0  0  0
 11 12  1  0  0  0
 13 12  1  0  0  0
 13 14  1  0  0  0
 14 15  1  0  0  0
 15 16  1  0  0  0
 16 17  1  0  0  0
  9  1  1  0  0  0
 17 13  1  0  0  0
  8  4  1  0  0  0
  5 10  1  0  0  0
 16 18  1  0  0  0
 16 19  1  0  0  0
M  CHG 1  16   1
M  END
> <minimizedAffinity>
-5.41804

$$$$
direct_link_TRP_ALA_PRO


 19 21  0  0  0  0  0  0  0  0999 V2000
    5.9914   -2.2691  -11.3208 C   0  0  0  0  0  0  0  0  0  0  0  0
    7.3703   -2.4641  -11.3800 C   0  0  0  0  0  0  0  0  0  0  0  0
    8.2231   -1.8416  -10.4690 C   0  0  0  0  0  0  0  0  0  0  0  0
    7.6422   -1.0174   -9.5007 C   0  0  0  0  0  0  0  0  0  0  0  0
    8.2365   -0.2891   -8.4940 N   0  0  0  0  0  0  0  0  0  0  0  0
    7.2871    0.3849   -7.7744 C   0  0  0  0  0  0  0  0  0  0  0  0
    6.0594    0.0870   -8.3183 C   0  0  0  0  0  0  0  0  0  0  0  0
    6.2657   -0.8027   -9.4140 C   0  0  0  0  0  0  0  0  0  0  0  0
    5.4036   -1.4426  -10.3400 C   0  0  0  0  0  0  0  0  0  0  0  0
    9.2045   -0.2577   -8.3174 H   0  0  0  0  0  0  0  0  0  0  0  0
    3.9052   -1.2523  -10.3325 C   0  0  0  0  0  0  0  0  0  0  0  0
    3.1803   -2.6031  -10.3569 C   0  0  0  0  0  0  0  0  0  0  0  0
    2.3302   -2.9345   -9.1274 C   0  0  0  0  0  0  0  0  0  0  0  0
    0.8876   -3.3368   -9.4102 C   0  0  0  0  0  0  0  0  0  0  0  0
    0.2586   -3.3276   -8.0289 C   0  0  0  0  0  0  0  0  0  0  0  0
    0.9813   -2.2292   -7.3005 N   0  0  0  0  0  0  0  0  0  0  0  0
    2.1636   -1.8008   -8.1265 C   0  0  0  0  0  0  0  0  0  0  0  0
    1.3013   -2.5707   -6.3942 H   0  0  0  0  0  0  0  0  0  0  0  0
    0.3545   -1.4380   -7.1535 H   0  0  0  0  0  0  0  0  0  0  0  0
  1  2  2  0  0  0
  2  3  1  0  0  0
  3  4  2  0  0  0
  4  5  1  0  0  0
  5  6  1  0  0  0
  6  7  2  0  0  0
  7  8  1  0  0  0
  8  9  2  0  0  0
  9 11  1  0  0  0
 11 12  1  0  0  0
 13 12  1  0  0  0
 13 14  1  0  0  0
 14 15  1  0  0  0
 15 16  1  0  0  0
 16 17  1  0  0  0
  9  1  1  0  0  0
 17 13  1  0  0  0
  8  4  1  0  0  0
  5 10  1  0  0  0
 16 18  1  0  0  0
 16 19  1  0  0  0
M  CHG 1  16   1
M  END
> <minimizedAffinity>
-5.40811

$$$$
