bridge_LYS46_TYR49_sulfonamide_diene_naphthalene


 20 21  0  0  0  0  0  0  0  0999 V2000
    4.7182   -0.0472   -9.2541 C   0  0  0  0  0  0  0  0  0  0  0  0
    3.5539   -1.0000   -9.3912 C   0  0  0  0  0  0  0  0  0  0  0  0
    3.3501   -1.7134  -10.5771 C   0  0  0  0  0  0  0  0  0  0  0  0
    2.2708   -2.5924  -10.6990 C   0  0  0  0  0  0  0  0  0  0  0  0
    1.3724   -2.7798   -9.6375 C   0  0  0  0  0  0  0  0  0  0  0  0
    0.2840   -3.6612   -9.7443 C   0  0  0  0  0  0  0  0  0  0  0  0
   -0.5982   -3.8381   -8.6770 C   0  0  0  0  0  0  0  0  0  0  0  0
   -0.4032   -3.1376   -7.4904 C   0  0  0  0  0  0  0  0  0  0  0  0
    0.6735   -2.2577   -7.3689 C   0  0  0  0  0  0  0  0  0  0  0  0
    1.5688   -2.0670   -8.4337 C   0  0  0  0  0  0  0  0  0  0  0  0
    2.6563   -1.1838   -8.3269 C   0  0  0  0  0  0  0  0  0  0  0  0
    5.6961    1.1879   -7.2923 C   0  0  0  0  0  0  0  0  0  0  0  0
    4.6297    0.7885   -8.0056 C   0  0  0  0  0  0  0  0  0  0  0  0
    5.6100    2.0524   -6.0646 C   0  0  0  0  0  0  0  0  0  0  0  0
    7.8991    0.6142   -5.8805 N   0  0  0  0  0  0  0  0  0  0  0  0
    6.9065    1.5584   -4.9067 S   0  0  0  0  0  0  0  0  0  0  0  0
    7.7155    2.7017   -4.5492 O   0  0  0  0  0  0  0  0  0  0  0  0
    6.3832    0.6474   -3.9152 O   0  0  0  0  0  0  0  0  0  0  0  0
    8.6854    0.2682   -5.3305 H   0  0  0  0  0  0  0  0  0  0  0  0
    8.2483    1.1764   -6.6566 H   0  0  0  0  0  0  0  0  0  0  0  0
 15 16  1  0  0  0
 16 17  2  0  0  0
 16 18  2  0  0  0
 16 14  1  0  0  0
 14 12  1  0  0  0
 12 13  2  0  0  0
 13  1  1  0  0  0
  1  2  1  0  0  0
  2  3  2  0  0  0
  3  4  1  0  0  0
  4  5  2  0  0  0
  5  6  1  0  0  0
  6  7  2  0  0  0
  7  8  1  0  0  0
  8  9  2  0  0  0
  9 10  1  0  0  0
 10 11  2  0  0  0
 11  2  1  0  0  0
 10  5  1  0  0  0
 15 19  1  0  0  0
 15 20  1  0  0  0
M  END
> <minimizedAffinity>
-7.24734

$$$$
bridge_LYS46_TYR49_sulfonamide_diene_naphthalene


 20 21  0  0  0  0  0  0  0  0999 V2000
    4.9091   -0.3089   -9.4025 C   0  0  0  0  0  0  0  0  0  0  0  0
    3.6797   -1.1808   -9.5049 C   0  0  0  0  0  0  0  0  0  0  0  0
    3.3870   -1.8673  -10.6882 C   0  0  0  0  0  0  0  0  0  0  0  0
    2.2478   -2.6714  -10.7779 C   0  0  0  0  0  0  0  0  0  0  0  0
    1.3769   -2.8092   -9.6863 C   0  0  0  0  0  0  0  0  0  0  0  0
    0.2290   -3.6152   -9.7606 C   0  0  0  0  0  0  0  0  0  0  0  0
   -0.6249   -3.7436   -8.6638 C   0  0  0  0  0  0  0  0  0  0  0  0
   -0.3418   -3.0693   -7.4798 C   0  0  0  0  0  0  0  0  0  0  0  0
    0.7948   -2.2642   -7.3903 C   0  0  0  0  0  0  0  0  0  0  0  0
    1.6628   -2.1228   -8.4851 C   0  0  0  0  0  0  0  0  0  0  0  0
    2.8099   -1.3150   -8.4106 C   0  0  0  0  0  0  0  0  0  0  0  0
    5.1864    1.7281   -7.9519 C   0  0  0  0  0  0  0  0  0  0  0  0
    4.9963    0.4041   -8.0800 C   0  0  0  0  0  0  0  0  0  0  0  0
    5.2383    2.4458   -6.6312 C   0  0  0  0  0  0  0  0  0  0  0  0
    7.1140    4.3892   -6.8493 N   0  0  0  0  0  0  0  0  0  0  0  0
    5.4443    4.2157   -6.9326 S   0  0  0  0  0  0  0  0  0  0  0  0
    5.1059    4.5291   -8.3026 O   0  0  0  0  0  0  0  0  0  0  0  0
    4.9347    4.9840   -5.8205 O   0  0  0  0  0  0  0  0  0  0  0  0
    7.3626    5.3659   -7.0065 H   0  0  0  0  0  0  0  0  0  0  0  0
    7.5523    3.8076   -7.5636 H   0  0  0  0  0  0  0  0  0  0  0  0
 15 16  1  0  0  0
 16 17  2  0  0  0
 16 18  2  0  0  0
 16 14  1  0  0  0
 14 12  1  0  0  0
 12 13  2  0  0  0
 13  1  1  0  0  0
  1  2  1  0  0  0
  2  3  2  0  0  0
  3  4  1  0  0  0
  4  5  2  0  0  0
  5  6  1  0  0  0
  6  7  2  0  0  0
  7  8  1  0  0  0
  8  9  2  0  0  0
  9 10  1  0  0  0
 10 11  2  0  0  0
 11  2  1  0  0  0
 10  5  1  0  0  0
 15 19  1  0  0  0
 15 20  1  0  0  0
M  END
> <minimizedAffinity>
-6.78537

$$$$
bridge_LYS46_TYR49_sulfonamide_diene_naphthalene


 20 21  0  0  0  0  0  0  0  0999 V2000
    4.7057    0.1312   -8.8895 C   0  0  0  0  0  0  0  0  0  0  0  0
    3.5972   -0.8577   -9.1641 C   0  0  0  0  0  0  0  0  0  0  0  0
    3.5317   -1.5369  -10.3853 C   0  0  0  0  0  0  0  0  0  0  0  0
    2.5034   -2.4495  -10.6345 C   0  0  0  0  0  0  0  0  0  0  0  0
    1.5190   -2.7056   -9.6679 C   0  0  0  0  0  0  0  0  0  0  0  0
    0.4804   -3.6215   -9.9031 C   0  0  0  0  0  0  0  0  0  0  0  0
   -0.4889   -3.8667   -8.9289 C   0  0  0  0  0  0  0  0  0  0  0  0
   -0.4317   -3.2007   -7.7082 C   0  0  0  0  0  0  0  0  0  0  0  0
    0.5939   -2.2872   -7.4595 C   0  0  0  0  0  0  0  0  0  0  0  0
    1.5755   -2.0278   -8.4297 C   0  0  0  0  0  0  0  0  0  0  0  0
    2.6131   -1.1102   -8.1945 C   0  0  0  0  0  0  0  0  0  0  0  0
    7.0324   -0.7695   -9.2139 C   0  0  0  0  0  0  0  0  0  0  0  0
    5.9411   -0.1546   -9.7001 C   0  0  0  0  0  0  0  0  0  0  0  0
    8.2533   -1.0867  -10.0331 C   0  0  0  0  0  0  0  0  0  0  0  0
    8.7576   -1.7471   -7.4539 N   0  0  0  0  0  0  0  0  0  0  0  0
    9.5307   -1.7599   -8.9463 S   0  0  0  0  0  0  0  0  0  0  0  0
    9.7471   -3.1585   -9.2407 O   0  0  0  0  0  0  0  0  0  0  0  0
   10.6240   -0.8261   -8.8067 O   0  0  0  0  0  0  0  0  0  0  0  0
    9.3890   -2.1122   -6.7408 H   0  0  0  0  0  0  0  0  0  0  0  0
    7.9220   -2.3302   -7.4988 H   0  0  0  0  0  0  0  0  0  0  0  0
 15 16  1  0  0  0
 16 17  2  0  0  0
 16 18  2  0  0  0
 16 14  1  0  0  0
 14 12  1  0  0  0
 12 13  2  0  0  0
 13  1  1  0  0  0
  1  2  1  0  0  0
  2  3  2  0  0  0
  3  4  1  0  0  0
  4  5  2  0  0  0
  5  6  1  0  0  0
  6  7  2  0  0  0
  7  8  1  0  0  0
  8  9  2  0  0  0
  9 10  1  0  0  0
 10 11  2  0  0  0
 11  2  1  0  0  0
 10  5  1  0  0  0
 15 19  1  0  0  0
 15 20  1  0  0  0
M  END
> <minimizedAffinity>
-6.77854

$$$$
bridge_LYS46_TYR49_sulfonamide_diene_naphthalene


 20 21  0  0  0  0  0  0  0  0999 V2000
    4.5816   -1.5024  -11.4578 C   0  0  0  0  0  0  0  0  0  0  0  0
    3.5333   -1.6835  -10.3853 C   0  0  0  0  0  0  0  0  0  0  0  0
    3.5910   -0.9461   -9.1979 C   0  0  0  0  0  0  0  0  0  0  0  0
    2.6194   -1.1185   -8.2085 C   0  0  0  0  0  0  0  0  0  0  0  0
    1.5672   -2.0300   -8.3848 C   0  0  0  0  0  0  0  0  0  0  0  0
    0.5822   -2.2129   -7.4003 C   0  0  0  0  0  0  0  0  0  0  0  0
   -0.4596   -3.1216   -7.5936 C   0  0  0  0  0  0  0  0  0  0  0  0
   -0.5304   -3.8576   -8.7727 C   0  0  0  0  0  0  0  0  0  0  0  0
    0.4411   -3.6875   -9.7603 C   0  0  0  0  0  0  0  0  0  0  0  0
    1.4966   -2.7789   -9.5806 C   0  0  0  0  0  0  0  0  0  0  0  0
    2.4825   -2.5977  -10.5650 C   0  0  0  0  0  0  0  0  0  0  0  0
    6.9670   -1.4585  -10.6588 C   0  0  0  0  0  0  0  0  0  0  0  0
    5.8933   -2.1419  -11.0895 C   0  0  0  0  0  0  0  0  0  0  0  0
    8.2664   -2.1008  -10.2573 C   0  0  0  0  0  0  0  0  0  0  0  0
    8.6747   -1.7892   -7.5967 N   0  0  0  0  0  0  0  0  0  0  0  0
    9.0927   -1.0457   -9.0449 S   0  0  0  0  0  0  0  0  0  0  0  0
   10.5261   -1.2037   -9.1437 O   0  0  0  0  0  0  0  0  0  0  0  0
    8.4651    0.2544   -8.9901 O   0  0  0  0  0  0  0  0  0  0  0  0
    9.0898   -1.2762   -6.8189 H   0  0  0  0  0  0  0  0  0  0  0  0
    9.0210   -2.7486   -7.5946 H   0  0  0  0  0  0  0  0  0  0  0  0
 15 16  1  0  0  0
 16 17  2  0  0  0
 16 18  2  0  0  0
 16 14  1  0  0  0
 14 12  1  0  0  0
 12 13  2  0  0  0
 13  1  1  0  0  0
  1  2  1  0  0  0
  2  3  2  0  0  0
  3  4  1  0  0  0
  4  5  2  0  0  0
  5  6  1  0  0  0
  6  7  2  0  0  0
  7  8  1  0  0  0
  8  9  2  0  0  0
  9 10  1  0  0  0
 10 11  2  0  0  0
 11  2  1  0  0  0
 10  5  1  0  0  0
 15 19  1  0  0  0
 15 20  1  0  0  0
M  END
> <minimizedAffinity>
-6.42913

$$$$
bridge_LYS46_TYR49_sulfonamide_diene_naphthalene


 20 21  0  0  0  0  0  0  0  0999 V2000
    4.2765   -1.7065  -11.7196 C   0  0  0  0  0  0  0  0  0  0  0  0
    3.3316   -1.8230  -10.5467 C   0  0  0  0  0  0  0  0  0  0  0  0
    3.5354   -1.0674   -9.3871 C   0  0  0  0  0  0  0  0  0  0  0  0
    2.6592   -1.1800   -8.3046 C   0  0  0  0  0  0  0  0  0  0  0  0
    1.5583   -2.0485   -8.3577 C   0  0  0  0  0  0  0  0  0  0  0  0
    0.6678   -2.1712   -7.2784 C   0  0  0  0  0  0  0  0  0  0  0  0
   -0.4243   -3.0377   -7.3494 C   0  0  0  0  0  0  0  0  0  0  0  0
   -0.6402   -3.7912   -8.4994 C   0  0  0  0  0  0  0  0  0  0  0  0
    0.2360   -3.6808   -9.5803 C   0  0  0  0  0  0  0  0  0  0  0  0
    1.3404   -2.8152   -9.5240 C   0  0  0  0  0  0  0  0  0  0  0  0
    2.2318   -2.6943  -10.6032 C   0  0  0  0  0  0  0  0  0  0  0  0
    2.7459   -1.4548  -13.7007 C   0  0  0  0  0  0  0  0  0  0  0  0
    3.6493   -2.1682  -13.0075 C   0  0  0  0  0  0  0  0  0  0  0  0
    2.1455   -1.9004  -15.0057 C   0  0  0  0  0  0  0  0  0  0  0  0
   -0.2260   -1.1284  -13.9464 N   0  0  0  0  0  0  0  0  0  0  0  0
    0.4531   -2.4618  -14.7119 S   0  0  0  0  0  0  0  0  0  0  0  0
   -0.2582   -2.5729  -15.9654 O   0  0  0  0  0  0  0  0  0  0  0  0
    0.4301   -3.5116  -13.7199 O   0  0  0  0  0  0  0  0  0  0  0  0
   -1.2020   -1.3246  -13.7240 H   0  0  0  0  0  0  0  0  0  0  0  0
   -0.1743   -0.3186  -14.5645 H   0  0  0  0  0  0  0  0  0  0  0  0
 15 16  1  0  0  0
 16 17  2  0  0  0
 16 18  2  0  0  0
 16 14  1  0  0  0
 14 12  1  0  0  0
 12 13  2  0  0  0
 13  1  1  0  0  0
  1  2  1  0  0  0
  2  3  2  0  0  0
  3  4  1  0  0  0
  4  5  2  0  0  0
  5  6  1  0  0  0
  6  7  2  0  0  0
  7  8  1  0  0  0
  8  9  2  0  0  0
  9 10  1  0  0  0
 10 11  2  0  0  0
 11  2  1  0  0  0
 10  5  1  0  0  0
 15 19  1  0  0  0
 15 20  1  0  0  0
M  END
> <minimizedAffinity>
-6.30859

$$$$
bridge_LYS46_TYR49_sulfonamide_diene_naphthalene


 20 21  0  0  0  0  0  0  0  0999 V2000
    4.7370   -1.3080  -11.4438 C   0  0  0  0  0  0  0  0  0  0  0  0
    3.6652   -1.5439  -10.4057 C   0  0  0  0  0  0  0  0  0  0  0  0
    3.6624   -0.8252   -9.2055 C   0  0  0  0  0  0  0  0  0  0  0  0
    2.6693   -1.0484   -8.2481 C   0  0  0  0  0  0  0  0  0  0  0  0
    1.6557   -1.9929   -8.4699 C   0  0  0  0  0  0  0  0  0  0  0  0
    0.6497   -2.2270   -7.5179 C   0  0  0  0  0  0  0  0  0  0  0  0
   -0.3532   -3.1682   -7.7564 C   0  0  0  0  0  0  0  0  0  0  0  0
   -0.3637   -3.8860   -8.9487 C   0  0  0  0  0  0  0  0  0  0  0  0
    0.6293   -3.6652   -9.9044 C   0  0  0  0  0  0  0  0  0  0  0  0
    1.6462   -2.7234   -9.6791 C   0  0  0  0  0  0  0  0  0  0  0  0
    2.6532   -2.4910  -10.6310 C   0  0  0  0  0  0  0  0  0  0  0  0
    7.0919   -2.1937  -11.4667 C   0  0  0  0  0  0  0  0  0  0  0  0
    6.1237   -1.4689  -10.8813 C   0  0  0  0  0  0  0  0  0  0  0  0
    8.4880   -2.3259  -10.9230 C   0  0  0  0  0  0  0  0  0  0  0  0
   11.0011   -2.8495  -11.7904 N   0  0  0  0  0  0  0  0  0  0  0  0
    9.6680   -1.9260  -12.2320 S   0  0  0  0  0  0  0  0  0  0  0  0
    9.2260   -2.4884  -13.4881 O   0  0  0  0  0  0  0  0  0  0  0  0
   10.1105   -0.5557  -12.1171 O   0  0  0  0  0  0  0  0  0  0  0  0
   11.7519   -2.7076  -12.4662 H   0  0  0  0  0  0  0  0  0  0  0  0
   10.7410   -3.8356  -11.7733 H   0  0  0  0  0  0  0  0  0  0  0  0
 15 16  1  0  0  0
 16 17  2  0  0  0
 16 18  2  0  0  0
 16 14  1  0  0  0
 14 12  1  0  0  0
 12 13  2  0  0  0
 13  1  1  0  0  0
  1  2  1  0  0  0
  2  3  2  0  0  0
  3  4  1  0  0  0
  4  5  2  0  0  0
  5  6  1  0  0  0
  6  7  2  0  0  0
  7  8  1  0  0  0
  8  9  2  0  0  0
  9 10  1  0  0  0
 10 11  2  0  0  0
 11  2  1  0  0  0
 10  5  1  0  0  0
 15 19  1  0  0  0
 15 20  1  0  0  0
M  END
> <minimizedAffinity>
-6.12012

$$$$
bridge_LYS46_TYR49_sulfonamide_diene_naphthalene


 20 21  0  0  0  0  0  0  0  0999 V2000
    4.7785   -0.9707  -11.1458 C   0  0  0  0  0  0  0  0  0  0  0  0
    3.6505   -1.3329  -10.2086 C   0  0  0  0  0  0  0  0  0  0  0  0
    3.5255   -0.7053   -8.9646 C   0  0  0  0  0  0  0  0  0  0  0  0
    2.4809   -1.0452   -8.1010 C   0  0  0  0  0  0  0  0  0  0  0  0
    1.5365   -2.0181   -8.4624 C   0  0  0  0  0  0  0  0  0  0  0  0
    0.4800   -2.3691   -7.6059 C   0  0  0  0  0  0  0  0  0  0  0  0
   -0.4526   -3.3369   -7.9829 C   0  0  0  0  0  0  0  0  0  0  0  0
   -0.3416   -3.9648   -9.2199 C   0  0  0  0  0  0  0  0  0  0  0  0
    0.7030   -3.6274  -10.0820 C   0  0  0  0  0  0  0  0  0  0  0  0
    1.6505   -2.6574   -9.7171 C   0  0  0  0  0  0  0  0  0  0  0  0
    2.7081   -2.3081  -10.5735 C   0  0  0  0  0  0  0  0  0  0  0  0
    6.7843   -0.2768   -9.7946 C   0  0  0  0  0  0  0  0  0  0  0  0
    5.7174    0.0416  -10.5467 C   0  0  0  0  0  0  0  0  0  0  0  0
    7.7426    0.7330   -9.2252 C   0  0  0  0  0  0  0  0  0  0  0  0
    8.4245    2.0488   -6.9567 N   0  0  0  0  0  0  0  0  0  0  0  0
    7.0625    1.3826   -7.6821 S   0  0  0  0  0  0  0  0  0  0  0  0
    6.1984    2.5088   -7.9551 O   0  0  0  0  0  0  0  0  0  0  0  0
    6.6653    0.3040   -6.8071 O   0  0  0  0  0  0  0  0  0  0  0  0
    8.1660    2.4566   -6.0582 H   0  0  0  0  0  0  0  0  0  0  0  0
    8.8109    2.7742   -7.5607 H   0  0  0  0  0  0  0  0  0  0  0  0
 15 16  1  0  0  0
 16 17  2  0  0  0
 16 18  2  0  0  0
 16 14  1  0  0  0
 14 12  1  0  0  0
 12 13  2  0  0  0
 13  1  1  0  0  0
  1  2  1  0  0  0
  2  3  2  0  0  0
  3  4  1  0  0  0
  4  5  2  0  0  0
  5  6  1  0  0  0
  6  7  2  0  0  0
  7  8  1  0  0  0
  8  9  2  0  0  0
  9 10  1  0  0  0
 10 11  2  0  0  0
 11  2  1  0  0  0
 10  5  1  0  0  0
 15 19  1  0  0  0
 15 20  1  0  0  0
M  END
> <minimizedAffinity>
-6.00100

$$$$
bridge_LYS46_TYR49_sulfonamide_diene_naphthalene


 20 21  0  0  0  0  0  0  0  0999 V2000
    4.8712   -0.3318   -9.4726 C   0  0  0  0  0  0  0  0  0  0  0  0
    3.6290   -1.1889   -9.5398 C   0  0  0  0  0  0  0  0  0  0  0  0
    3.2999   -1.8797  -10.7110 C   0  0  0  0  0  0  0  0  0  0  0  0
    2.1490   -2.6700  -10.7681 C   0  0  0  0  0  0  0  0  0  0  0  0
    1.3026   -2.7895   -9.6553 C   0  0  0  0  0  0  0  0  0  0  0  0
    0.1434   -3.5816   -9.6968 C   0  0  0  0  0  0  0  0  0  0  0  0
   -0.6858   -3.6919   -8.5793 C   0  0  0  0  0  0  0  0  0  0  0  0
   -0.3664   -3.0132   -7.4070 C   0  0  0  0  0  0  0  0  0  0  0  0
    0.7818   -2.2218   -7.3501 C   0  0  0  0  0  0  0  0  0  0  0  0
    1.6253   -2.0987   -8.4660 C   0  0  0  0  0  0  0  0  0  0  0  0
    2.7838   -1.3049   -8.4243 C   0  0  0  0  0  0  0  0  0  0  0  0
    7.3188   -0.5224  -10.0233 C   0  0  0  0  0  0  0  0  0  0  0  0
    6.1110   -1.0895   -9.8650 C   0  0  0  0  0  0  0  0  0  0  0  0
    8.5648   -1.2850  -10.3809 C   0  0  0  0  0  0  0  0  0  0  0  0
    8.2073    0.2390  -12.5927 N   0  0  0  0  0  0  0  0  0  0  0  0
    8.7501   -1.2968  -12.1785 S   0  0  0  0  0  0  0  0  0  0  0  0
   10.1513   -1.3041  -12.5336 O   0  0  0  0  0  0  0  0  0  0  0  0
    7.7999   -2.2023  -12.7821 O   0  0  0  0  0  0  0  0  0  0  0  0
    8.2636    0.3582  -13.6042 H   0  0  0  0  0  0  0  0  0  0  0  0
    8.7893    0.9403  -12.1348 H   0  0  0  0  0  0  0  0  0  0  0  0
 15 16  1  0  0  0
 16 17  2  0  0  0
 16 18  2  0  0  0
 16 14  1  0  0  0
 14 12  1  0  0  0
 12 13  2  0  0  0
 13  1  1  0  0  0
  1  2  1  0  0  0
  2  3  2  0  0  0
  3  4  1  0  0  0
  4  5  2  0  0  0
  5  6  1  0  0  0
  6  7  2  0  0  0
  7  8  1  0  0  0
  8  9  2  0  0  0
  9 10  1  0  0  0
 10 11  2  0  0  0
 11  2  1  0  0  0
 10  5  1  0  0  0
 15 19  1  0  0  0
 15 20  1  0  0  0
M  END
> <minimizedAffinity>
-5.78260

$$$$
bridge_LYS46_TYR49_sulfonamide_diene_naphthalene


 20 21  0  0  0  0  0  0  0  0999 V2000
    4.3749   -1.2839  -11.4000 C   0  0  0  0  0  0  0  0  0  0  0  0
    3.3516   -1.5423  -10.3192 C   0  0  0  0  0  0  0  0  0  0  0  0
    3.4291   -0.8810   -9.0889 C   0  0  0  0  0  0  0  0  0  0  0  0
    2.4806   -1.1248   -8.0921 C   0  0  0  0  0  0  0  0  0  0  0  0
    1.4322   -2.0332   -8.3036 C   0  0  0  0  0  0  0  0  0  0  0  0
    0.4703   -2.2873   -7.3121 C   0  0  0  0  0  0  0  0  0  0  0  0
   -0.5681   -3.1917   -7.5406 C   0  0  0  0  0  0  0  0  0  0  0  0
   -0.6585   -3.8523   -8.7622 C   0  0  0  0  0  0  0  0  0  0  0  0
    0.2899   -3.6109   -9.7575 C   0  0  0  0  0  0  0  0  0  0  0  0
    1.3417   -2.7056   -9.5428 C   0  0  0  0  0  0  0  0  0  0  0  0
    2.3046   -2.4531  -10.5343 C   0  0  0  0  0  0  0  0  0  0  0  0
    3.1655    0.4951  -12.7049 C   0  0  0  0  0  0  0  0  0  0  0  0
    3.7577   -0.7096  -12.6467 C   0  0  0  0  0  0  0  0  0  0  0  0
    2.5800    1.0840  -13.9589 C   0  0  0  0  0  0  0  0  0  0  0  0
    0.7185    1.2988  -12.0016 N   0  0  0  0  0  0  0  0  0  0  0  0
    1.0009    1.8662  -13.5583 S   0  0  0  0  0  0  0  0  0  0  0  0
    1.1773    3.2930  -13.4076 O   0  0  0  0  0  0  0  0  0  0  0  0
   -0.0628    1.3038  -14.3577 O   0  0  0  0  0  0  0  0  0  0  0  0
   -0.1633    1.6778  -11.6564 H   0  0  0  0  0  0  0  0  0  0  0  0
    1.4786    1.5943  -11.3889 H   0  0  0  0  0  0  0  0  0  0  0  0
 15 16  1  0  0  0
 16 17  2  0  0  0
 16 18  2  0  0  0
 16 14  1  0  0  0
 14 12  1  0  0  0
 12 13  2  0  0  0
 13  1  1  0  0  0
  1  2  1  0  0  0
  2  3  2  0  0  0
  3  4  1  0  0  0
  4  5  2  0  0  0
  5  6  1  0  0  0
  6  7  2  0  0  0
  7  8  1  0  0  0
  8  9  2  0  0  0
  9 10  1  0  0  0
 10 11  2  0  0  0
 11  2  1  0  0  0
 10  5  1  0  0  0
 15 19  1  0  0  0
 15 20  1  0  0  0
M  END
> <minimizedAffinity>
-5.76732

$$$$
