benzene_tri_TRP_ALA_PRO


 25 28  0  0  0  0  0  0  0  0999 V2000
    5.6793    0.0100   -9.8772 C   0  0  0  0  0  0  0  0  0  0  0  0
    5.3261   -1.3023   -9.8630 C   0  0  0  0  0  0  0  0  0  0  0  0
    4.4658   -0.3555   -9.3240 C   0  0  0  0  0  0  0  0  0  0  0  0
    3.3032   -0.1392   -8.7460 C   0  0  0  0  0  0  0  0  0  0  0  0
    2.4170   -1.1926   -8.3331 C   0  0  0  0  0  0  0  0  0  0  0  0
    1.6780   -2.1088   -8.9827 C   0  0  0  0  0  0  0  0  0  0  0  0
    0.9968   -3.0611   -8.2317 N   0  0  0  0  0  0  0  0  0  0  0  0
    0.3480   -3.9813   -9.0002 C   0  0  0  0  0  0  0  0  0  0  0  0
    0.5039   -3.7038  -10.2951 C   0  0  0  0  0  0  0  0  0  0  0  0
    1.3555   -2.4878  -10.4019 C   0  0  0  0  0  0  0  0  0  0  0  0
    1.6163   -1.9780  -11.6343 C   0  0  0  0  0  0  0  0  0  0  0  0
    1.0775   -2.6713  -12.8903 C   0  0  0  0  0  0  0  0  0  0  0  0
    5.3054   -2.2008  -10.9836 C   0  0  0  0  0  0  0  0  0  0  0  0
    4.5787   -2.0365  -12.1012 C   0  0  0  0  0  0  0  0  0  0  0  0
    4.6760   -2.9974  -13.2506 C   0  0  0  0  0  0  0  0  0  0  0  0
    3.7040   -0.8855  -12.3083 C   0  0  0  0  0  0  0  0  0  0  0  0
    2.3876   -0.7936  -12.0182 C   0  0  0  0  0  0  0  0  0  0  0  0
    0.9844   -3.0697   -7.2473 H   0  0  0  0  0  0  0  0  0  0  0  0
    1.5138    0.4188  -12.3784 C   0  0  0  0  0  0  0  0  0  0  0  0
    1.3679    0.7576  -13.8643 C   0  0  0  0  0  0  0  0  0  0  0  0
    2.5379    1.6725  -14.1525 C   0  0  0  0  0  0  0  0  0  0  0  0
    2.6899    2.4799  -12.9053 N   0  0  0  0  0  0  0  0  0  0  0  0
    2.0049    1.7393  -11.7777 C   0  0  0  0  0  0  0  0  0  0  0  0
    2.2569    3.3948  -13.0310 H   0  0  0  0  0  0  0  0  0  0  0  0
    3.6779    2.6142  -12.6902 H   0  0  0  0  0  0  0  0  0  0  0  0
  1  2  2  0  0  0
  2  3  1  0  0  0
  3  4  2  0  0  0
  4  5  1  0  0  0
  5  6  2  0  0  0
  6  7  1  0  0  0
  7  8  1  0  0  0
  8  9  2  0  0  0
  9 10  1  0  0  0
 10 11  2  0  0  0
 11 12  1  0  0  0
  2 13  1  0  0  0
 13 14  2  0  0  0
 14 15  1  0  0  0
 14 16  1  0  0  0
 16 17  2  0  0  0
 17 19  1  0  0  0
 19 20  1  0  0  0
 20 21  1  0  0  0
 21 22  1  0  0  0
 22 23  1  0  0  0
  3  1  1  0  0  0
 17 11  1  0  0  0
 23 19  1  0  0  0
 10  6  1  0  0  0
  7 18  1  0  0  0
 22 24  1  0  0  0
 22 25  1  0  0  0
M  CHG 1  22   1
M  END
> <minimizedAffinity>
-6.11989

$$$$
benzene_tri_TRP_ALA_PRO


 25 28  0  0  0  0  0  0  0  0999 V2000
   12.4751    1.6624    3.5646 C   0  0  0  0  0  0  0  0  0  0  0  0
   11.3771    1.8774    2.7932 C   0  0  0  0  0  0  0  0  0  0  0  0
   12.2678    2.9173    3.0218 C   0  0  0  0  0  0  0  0  0  0  0  0
   12.5638    4.1760    2.7761 C   0  0  0  0  0  0  0  0  0  0  0  0
   11.6995    5.0643    2.0486 C   0  0  0  0  0  0  0  0  0  0  0  0
   11.2872    5.1387    0.7711 C   0  0  0  0  0  0  0  0  0  0  0  0
   10.3447    6.1055    0.4364 N   0  0  0  0  0  0  0  0  0  0  0  0
    9.9465    6.0332   -0.8653 C   0  0  0  0  0  0  0  0  0  0  0  0
   10.6032    5.0634   -1.5029 C   0  0  0  0  0  0  0  0  0  0  0  0
   11.5176    4.4125   -0.5255 C   0  0  0  0  0  0  0  0  0  0  0  0
   12.3352    3.4167   -0.9576 C   0  0  0  0  0  0  0  0  0  0  0  0
   12.2815    2.9466   -2.4152 C   0  0  0  0  0  0  0  0  0  0  0  0
   10.9578    1.1045    1.6574 C   0  0  0  0  0  0  0  0  0  0  0  0
   11.6789    0.9034    0.5421 C   0  0  0  0  0  0  0  0  0  0  0  0
   11.1826    0.0209   -0.5665 C   0  0  0  0  0  0  0  0  0  0  0  0
   13.0147    1.4638    0.3578 C   0  0  0  0  0  0  0  0  0  0  0  0
   13.3375    2.6387   -0.2259 C   0  0  0  0  0  0  0  0  0  0  0  0
   10.0008    6.7726    1.0735 H   0  0  0  0  0  0  0  0  0  0  0  0
   14.7814    3.0988   -0.4842 C   0  0  0  0  0  0  0  0  0  0  0  0
   15.8848    2.4332    0.3426 C   0  0  0  0  0  0  0  0  0  0  0  0
   15.9713    3.2786    1.5943 C   0  0  0  0  0  0  0  0  0  0  0  0
   15.7171    4.6707    1.1165 N   0  0  0  0  0  0  0  0  0  0  0  0
   15.0152    4.5893   -0.2213 C   0  0  0  0  0  0  0  0  0  0  0  0
   16.6020    5.1673    1.0128 H   0  0  0  0  0  0  0  0  0  0  0  0
   15.1382    5.1742    1.7886 H   0  0  0  0  0  0  0  0  0  0  0  0
  1  2  2  0  0  0
  2  3  1  0  0  0
  3  4  2  0  0  0
  4  5  1  0  0  0
  5  6  2  0  0  0
  6  7  1  0  0  0
  7  8  1  0  0  0
  8  9  2  0  0  0
  9 10  1  0  0  0
 10 11  2  0  0  0
 11 12  1  0  0  0
  2 13  1  0  0  0
 13 14  2  0  0  0
 14 15  1  0  0  0
 14 16  1  0  0  0
 16 17  2  0  0  0
 17 19  1  0  0  0
 19 20  1  0  0  0
 20 21  1  0  0  0
 21 22  1  0  0  0
 22 23  1  0  0  0
  3  1  1  0  0  0
 17 11  1  0  0  0
 23 19  1  0  0  0
 10  6  1  0  0  0
  7 18  1  0  0  0
 22 24  1  0  0  0
 22 25  1  0  0  0
M  CHG 1  22   1
M  END
> <minimizedAffinity>
-6.01573

$$$$
benzene_tri_TRP_ALA_PRO


 25 28  0  0  0  0  0  0  0  0999 V2000
    2.6831   -1.9704   -8.4879 C   0  0  0  0  0  0  0  0  0  0  0  0
    2.6524   -2.1041   -9.8401 C   0  0  0  0  0  0  0  0  0  0  0  0
    2.3213   -0.8849   -9.2646 C   0  0  0  0  0  0  0  0  0  0  0  0
    1.9603    0.3624   -9.4797 C   0  0  0  0  0  0  0  0  0  0  0  0
    1.6418    0.8804  -10.7819 C   0  0  0  0  0  0  0  0  0  0  0  0
    2.3521    1.1225  -11.8974 C   0  0  0  0  0  0  0  0  0  0  0  0
    1.6723    1.5476  -13.0341 N   0  0  0  0  0  0  0  0  0  0  0  0
    2.4842    1.6843  -14.1205 C   0  0  0  0  0  0  0  0  0  0  0  0
    3.7484    1.4085  -13.7982 C   0  0  0  0  0  0  0  0  0  0  0  0
    3.7809    1.0339  -12.3582 C   0  0  0  0  0  0  0  0  0  0  0  0
    4.9794    0.7543  -11.7819 C   0  0  0  0  0  0  0  0  0  0  0  0
    6.2658    0.7831  -12.6144 C   0  0  0  0  0  0  0  0  0  0  0  0
    3.7066   -2.5996  -10.6806 C   0  0  0  0  0  0  0  0  0  0  0  0
    4.9380   -2.0723  -10.7793 C   0  0  0  0  0  0  0  0  0  0  0  0
    5.9970   -2.7035  -11.6361 C   0  0  0  0  0  0  0  0  0  0  0  0
    5.3553   -0.9007  -10.0140 C   0  0  0  0  0  0  0  0  0  0  0  0
    5.2963    0.3932  -10.3983 C   0  0  0  0  0  0  0  0  0  0  0  0
    0.7051    1.7307  -13.0521 H   0  0  0  0  0  0  0  0  0  0  0  0
    5.8677    1.5584   -9.5743 C   0  0  0  0  0  0  0  0  0  0  0  0
    6.3473    1.2411   -8.1554 C   0  0  0  0  0  0  0  0  0  0  0  0
    5.1102    1.4066   -7.3003 C   0  0  0  0  0  0  0  0  0  0  0  0
    4.3796    2.5486   -7.9270 N   0  0  0  0  0  0  0  0  0  0  0  0
    4.8768    2.7039   -9.3474 C   0  0  0  0  0  0  0  0  0  0  0  0
    4.5606    3.4043   -7.4021 H   0  0  0  0  0  0  0  0  0  0  0  0
    3.3754    2.3702   -7.9222 H   0  0  0  0  0  0  0  0  0  0  0  0
  1  2  2  0  0  0
  2  3  1  0  0  0
  3  4  2  0  0  0
  4  5  1  0  0  0
  5  6  2  0  0  0
  6  7  1  0  0  0
  7  8  1  0  0  0
  8  9  2  0  0  0
  9 10  1  0  0  0
 10 11  2  0  0  0
 11 12  1  0  0  0
  2 13  1  0  0  0
 13 14  2  0  0  0
 14 15  1  0  0  0
 14 16  1  0  0  0
 16 17  2  0  0  0
 17 19  1  0  0  0
 19 20  1  0  0  0
 20 21  1  0  0  0
 21 22  1  0  0  0
 22 23  1  0  0  0
  3  1  1  0  0  0
 17 11  1  0  0  0
 23 19  1  0  0  0
 10  6  1  0  0  0
  7 18  1  0  0  0
 22 24  1  0  0  0
 22 25  1  0  0  0
M  CHG 1  22   1
M  END
> <minimizedAffinity>
-5.86121

$$$$
benzene_tri_TRP_ALA_PRO


 25 28  0  0  0  0  0  0  0  0999 V2000
    5.1327    0.1246   -8.2564 C   0  0  0  0  0  0  0  0  0  0  0  0
    3.8112    0.3331   -8.4956 C   0  0  0  0  0  0  0  0  0  0  0  0
    4.7484    0.7227   -9.4426 C   0  0  0  0  0  0  0  0  0  0  0  0
    4.9454    1.2587  -10.6285 C   0  0  0  0  0  0  0  0  0  0  0  0
    3.8912    1.8213  -11.4271 C   0  0  0  0  0  0  0  0  0  0  0  0
    2.8278    1.3133  -12.0741 C   0  0  0  0  0  0  0  0  0  0  0  0
    1.9413    2.1958  -12.6826 N   0  0  0  0  0  0  0  0  0  0  0  0
    0.8643    1.5710  -13.2375 C   0  0  0  0  0  0  0  0  0  0  0  0
    0.9596    0.2497  -13.0856 C   0  0  0  0  0  0  0  0  0  0  0  0
    2.2162   -0.0345  -12.3403 C   0  0  0  0  0  0  0  0  0  0  0  0
    2.5587   -1.3283  -12.1049 C   0  0  0  0  0  0  0  0  0  0  0  0
    1.6426   -2.4687  -12.5621 C   0  0  0  0  0  0  0  0  0  0  0  0
    2.7584   -0.6413   -8.4212 C   0  0  0  0  0  0  0  0  0  0  0  0
    2.6912   -1.7730   -9.1416 C   0  0  0  0  0  0  0  0  0  0  0  0
    1.5829   -2.7662   -8.9437 C   0  0  0  0  0  0  0  0  0  0  0  0
    3.7178   -2.1516  -10.1087 C   0  0  0  0  0  0  0  0  0  0  0  0
    3.7361   -1.8821  -11.4325 C   0  0  0  0  0  0  0  0  0  0  0  0
    2.0776    3.1705  -12.7097 H   0  0  0  0  0  0  0  0  0  0  0  0
    4.8007   -2.4212  -12.4016 C   0  0  0  0  0  0  0  0  0  0  0  0
    6.1581   -2.8034  -11.8056 C   0  0  0  0  0  0  0  0  0  0  0  0
    6.9545   -1.5175  -11.8428 C   0  0  0  0  0  0  0  0  0  0  0  0
    6.5166   -0.8496  -13.1048 N   0  0  0  0  0  0  0  0  0  0  0  0
    5.1842   -1.4392  -13.5125 C   0  0  0  0  0  0  0  0  0  0  0  0
    7.2057   -1.0125  -13.8390 H   0  0  0  0  0  0  0  0  0  0  0  0
    6.4276    0.1560  -12.9592 H   0  0  0  0  0  0  0  0  0  0  0  0
  1  2  2  0  0  0
  2  3  1  0  0  0
  3  4  2  0  0  0
  4  5  1  0  0  0
  5  6  2  0  0  0
  6  7  1  0  0  0
  7  8  1  0  0  0
  8  9  2  0  0  0
  9 10  1  0  0  0
 10 11  2  0  0  0
 11 12  1  0  0  0
  2 13  1  0  0  0
 13 14  2  0  0  0
 14 15  1  0  0  0
 14 16  1  0  0  0
 16 17  2  0  0  0
 17 19  1  0  0  0
 19 20  1  0  0  0
 20 21  1  0  0  0
 21 22  1  0  0  0
 22 23  1  0  0  0
  3  1  1  0  0  0
 17 11  1  0  0  0
 23 19  1  0  0  0
 10  6  1  0  0  0
  7 18  1  0  0  0
 22 24  1  0  0  0
 22 25  1  0  0  0
M  CHG 1  22   1
M  END
> <minimizedAffinity>
-5.78942

$$$$
benzene_tri_TRP_ALA_PRO


 25 28  0  0  0  0  0  0  0  0999 V2000
    7.0815    1.8891   -8.4613 C   0  0  0  0  0  0  0  0  0  0  0  0
    6.8160    0.6194   -8.0557 C   0  0  0  0  0  0  0  0  0  0  0  0
    5.7773    1.4304   -8.4920 C   0  0  0  0  0  0  0  0  0  0  0  0
    4.4860    1.5175   -8.7320 C   0  0  0  0  0  0  0  0  0  0  0  0
    3.5490    0.4778   -8.4056 C   0  0  0  0  0  0  0  0  0  0  0  0
    3.3289   -0.7674   -8.8623 C   0  0  0  0  0  0  0  0  0  0  0  0
    2.3679   -1.5448   -8.2243 N   0  0  0  0  0  0  0  0  0  0  0  0
    2.2894   -2.8108   -8.7236 C   0  0  0  0  0  0  0  0  0  0  0  0
    3.1407   -2.9681   -9.7378 C   0  0  0  0  0  0  0  0  0  0  0  0
    3.8724   -1.6852   -9.9225 C   0  0  0  0  0  0  0  0  0  0  0  0
    4.7691   -1.5841  -10.9386 C   0  0  0  0  0  0  0  0  0  0  0  0
    5.0501   -2.7856  -11.8474 C   0  0  0  0  0  0  0  0  0  0  0  0
    7.4538   -0.5827   -8.5155 C   0  0  0  0  0  0  0  0  0  0  0  0
    7.4795   -1.0142   -9.7873 C   0  0  0  0  0  0  0  0  0  0  0  0
    8.2327   -2.2513  -10.1827 C   0  0  0  0  0  0  0  0  0  0  0  0
    6.8441   -0.2815  -10.8791 C   0  0  0  0  0  0  0  0  0  0  0  0
    5.5914   -0.4468  -11.3575 C   0  0  0  0  0  0  0  0  0  0  0  0
    1.8031   -1.2149   -7.4885 H   0  0  0  0  0  0  0  0  0  0  0  0
    5.0415    0.2884  -12.5905 C   0  0  0  0  0  0  0  0  0  0  0  0
    5.7339    1.5936  -12.9917 C   0  0  0  0  0  0  0  0  0  0  0  0
    5.0137    2.6565  -12.1912 C   0  0  0  0  0  0  0  0  0  0  0  0
    3.5944    2.1928  -12.1565 N   0  0  0  0  0  0  0  0  0  0  0  0
    3.5751    0.7106  -12.4596 C   0  0  0  0  0  0  0  0  0  0  0  0
    3.0494    2.6957  -12.8568 H   0  0  0  0  0  0  0  0  0  0  0  0
    3.1876    2.3704  -11.2382 H   0  0  0  0  0  0  0  0  0  0  0  0
  1  2  2  0  0  0
  2  3  1  0  0  0
  3  4  2  0  0  0
  4  5  1  0  0  0
  5  6  2  0  0  0
  6  7  1  0  0  0
  7  8  1  0  0  0
  8  9  2  0  0  0
  9 10  1  0  0  0
 10 11  2  0  0  0
 11 12  1  0  0  0
  2 13  1  0  0  0
 13 14  2  0  0  0
 14 15  1  0  0  0
 14 16  1  0  0  0
 16 17  2  0  0  0
 17 19  1  0  0  0
 19 20  1  0  0  0
 20 21  1  0  0  0
 21 22  1  0  0  0
 22 23  1  0  0  0
  3  1  1  0  0  0
 17 11  1  0  0  0
 23 19  1  0  0  0
 10  6  1  0  0  0
  7 18  1  0  0  0
 22 24  1  0  0  0
 22 25  1  0  0  0
M  CHG 1  22   1
M  END
> <minimizedAffinity>
-5.76395

$$$$
benzene_tri_TRP_ALA_PRO


 25 28  0  0  0  0  0  0  0  0999 V2000
    1.6793   -0.5612  -14.2576 C   0  0  0  0  0  0  0  0  0  0  0  0
    1.2512   -0.1123  -13.0484 C   0  0  0  0  0  0  0  0  0  0  0  0
    1.4370   -1.4736  -13.2470 C   0  0  0  0  0  0  0  0  0  0  0  0
    1.3909   -2.6727  -12.7064 C   0  0  0  0  0  0  0  0  0  0  0  0
    0.8906   -2.9250  -11.3829 C   0  0  0  0  0  0  0  0  0  0  0  0
    1.3135   -2.6206  -10.1436 C   0  0  0  0  0  0  0  0  0  0  0  0
    0.4985   -2.9545   -9.0669 N   0  0  0  0  0  0  0  0  0  0  0  0
    0.9940   -2.5270   -7.8710 C   0  0  0  0  0  0  0  0  0  0  0  0
    2.1709   -1.9234   -8.0403 C   0  0  0  0  0  0  0  0  0  0  0  0
    2.4838   -1.9337   -9.4954 C   0  0  0  0  0  0  0  0  0  0  0  0
    3.6673   -1.4129   -9.9136 C   0  0  0  0  0  0  0  0  0  0  0  0
    4.6389   -0.7881   -8.9064 C   0  0  0  0  0  0  0  0  0  0  0  0
    1.8614    0.9091  -12.2436 C   0  0  0  0  0  0  0  0  0  0  0  0
    3.1170    0.8801  -11.7673 C   0  0  0  0  0  0  0  0  0  0  0  0
    3.6899    2.0299  -10.9904 C   0  0  0  0  0  0  0  0  0  0  0  0
    4.0313   -0.2284  -12.0279 C   0  0  0  0  0  0  0  0  0  0  0  0
    4.2312   -1.3234  -11.2623 C   0  0  0  0  0  0  0  0  0  0  0  0
   -0.3482   -3.4483   -9.1589 H   0  0  0  0  0  0  0  0  0  0  0  0
    5.3018   -2.3878  -11.5528 C   0  0  0  0  0  0  0  0  0  0  0  0
    6.7638   -1.9812  -11.3499 C   0  0  0  0  0  0  0  0  0  0  0  0
    7.1714   -1.3872  -12.6803 C   0  0  0  0  0  0  0  0  0  0  0  0
    6.4459   -2.2142  -13.6904 N   0  0  0  0  0  0  0  0  0  0  0  0
    5.2916   -2.9022  -12.9953 C   0  0  0  0  0  0  0  0  0  0  0  0
    7.0776   -2.9118  -14.0839 H   0  0  0  0  0  0  0  0  0  0  0  0
    6.1007   -1.6239  -14.4473 H   0  0  0  0  0  0  0  0  0  0  0  0
  1  2  2  0  0  0
  2  3  1  0  0  0
  3  4  2  0  0  0
  4  5  1  0  0  0
  5  6  2  0  0  0
  6  7  1  0  0  0
  7  8  1  0  0  0
  8  9  2  0  0  0
  9 10  1  0  0  0
 10 11  2  0  0  0
 11 12  1  0  0  0
  2 13  1  0  0  0
 13 14  2  0  0  0
 14 15  1  0  0  0
 14 16  1  0  0  0
 16 17  2  0  0  0
 17 19  1  0  0  0
 19 20  1  0  0  0
 20 21  1  0  0  0
 21 22  1  0  0  0
 22 23  1  0  0  0
  3  1  1  0  0  0
 17 11  1  0  0  0
 23 19  1  0  0  0
 10  6  1  0  0  0
  7 18  1  0  0  0
 22 24  1  0  0  0
 22 25  1  0  0  0
M  CHG 1  22   1
M  END
> <minimizedAffinity>
-5.65484

$$$$
benzene_tri_TRP_ALA_PRO


 25 28  0  0  0  0  0  0  0  0999 V2000
    4.4007    3.3736   -8.5784 C   0  0  0  0  0  0  0  0  0  0  0  0
    5.6775    3.1101   -8.9623 C   0  0  0  0  0  0  0  0  0  0  0  0
    5.1441    2.4543   -7.8611 C   0  0  0  0  0  0  0  0  0  0  0  0
    5.3510    1.5642   -6.9138 C   0  0  0  0  0  0  0  0  0  0  0  0
    6.6217    0.9328   -6.6857 C   0  0  0  0  0  0  0  0  0  0  0  0
    7.3728    0.0548   -7.3732 C   0  0  0  0  0  0  0  0  0  0  0  0
    8.6307   -0.2699   -6.8762 N   0  0  0  0  0  0  0  0  0  0  0  0
    9.3283   -1.1056   -7.6966 C   0  0  0  0  0  0  0  0  0  0  0  0
    8.5974   -1.4332   -8.7628 C   0  0  0  0  0  0  0  0  0  0  0  0
    7.2888   -0.7328   -8.6515 C   0  0  0  0  0  0  0  0  0  0  0  0
    6.3469   -0.9510   -9.6065 C   0  0  0  0  0  0  0  0  0  0  0  0
    6.6475   -1.8680  -10.7971 C   0  0  0  0  0  0  0  0  0  0  0  0
    6.1219    2.7346  -10.2756 C   0  0  0  0  0  0  0  0  0  0  0  0
    5.7134    1.6513  -10.9567 C   0  0  0  0  0  0  0  0  0  0  0  0
    6.1844    1.3787  -12.3559 C   0  0  0  0  0  0  0  0  0  0  0  0
    4.7366    0.7075  -10.4204 C   0  0  0  0  0  0  0  0  0  0  0  0
    4.9859   -0.4226   -9.7232 C   0  0  0  0  0  0  0  0  0  0  0  0
    8.9809    0.0688   -6.0206 H   0  0  0  0  0  0  0  0  0  0  0  0
    3.8995   -1.4230   -9.2964 C   0  0  0  0  0  0  0  0  0  0  0  0
    3.2080   -2.2188  -10.4066 C   0  0  0  0  0  0  0  0  0  0  0  0
    2.0540   -1.3371  -10.8310 C   0  0  0  0  0  0  0  0  0  0  0  0
    1.5956   -0.6949   -9.5629 N   0  0  0  0  0  0  0  0  0  0  0  0
    2.7215   -0.7829   -8.5560 C   0  0  0  0  0  0  0  0  0  0  0  0
    0.7740   -1.1827   -9.2060 H   0  0  0  0  0  0  0  0  0  0  0  0
    1.3479    0.2802   -9.7308 H   0  0  0  0  0  0  0  0  0  0  0  0
  1  2  2  0  0  0
  2  3  1  0  0  0
  3  4  2  0  0  0
  4  5  1  0  0  0
  5  6  2  0  0  0
  6  7  1  0  0  0
  7  8  1  0  0  0
  8  9  2  0  0  0
  9 10  1  0  0  0
 10 11  2  0  0  0
 11 12  1  0  0  0
  2 13  1  0  0  0
 13 14  2  0  0  0
 14 15  1  0  0  0
 14 16  1  0  0  0
 16 17  2  0  0  0
 17 19  1  0  0  0
 19 20  1  0  0  0
 20 21  1  0  0  0
 21 22  1  0  0  0
 22 23  1  0  0  0
  3  1  1  0  0  0
 17 11  1  0  0  0
 23 19  1  0  0  0
 10  6  1  0  0  0
  7 18  1  0  0  0
 22 24  1  0  0  0
 22 25  1  0  0  0
M  CHG 1  22   1
M  END
> <minimizedAffinity>
-5.61854

$$$$
benzene_tri_TRP_ALA_PRO


 25 28  0  0  0  0  0  0  0  0999 V2000
    4.1354   -2.2816  -12.5153 C   0  0  0  0  0  0  0  0  0  0  0  0
    4.4627   -2.6478  -11.2481 C   0  0  0  0  0  0  0  0  0  0  0  0
    5.4445   -2.1453  -12.0911 C   0  0  0  0  0  0  0  0  0  0  0  0
    6.7110   -1.8092  -12.2146 C   0  0  0  0  0  0  0  0  0  0  0  0
    7.6959   -2.0486  -11.1956 C   0  0  0  0  0  0  0  0  0  0  0  0
    7.9115   -1.5588   -9.9623 C   0  0  0  0  0  0  0  0  0  0  0  0
    8.9375   -2.1109   -9.2023 N   0  0  0  0  0  0  0  0  0  0  0  0
    9.0093   -1.5892   -7.9450 C   0  0  0  0  0  0  0  0  0  0  0  0
    8.0871   -0.6406   -7.7781 C   0  0  0  0  0  0  0  0  0  0  0  0
    7.3117   -0.5302   -9.0437 C   0  0  0  0  0  0  0  0  0  0  0  0
    6.3378    0.4133   -9.1339 C   0  0  0  0  0  0  0  0  0  0  0  0
    6.0182    1.3150   -7.9367 C   0  0  0  0  0  0  0  0  0  0  0  0
    3.8218   -2.2208  -10.0355 C   0  0  0  0  0  0  0  0  0  0  0  0
    3.7098   -0.9487   -9.6191 C   0  0  0  0  0  0  0  0  0  0  0  0
    2.9598   -0.5943   -8.3678 C   0  0  0  0  0  0  0  0  0  0  0  0
    4.2415    0.1778  -10.3813 C   0  0  0  0  0  0  0  0  0  0  0  0
    5.4577    0.7523  -10.2545 C   0  0  0  0  0  0  0  0  0  0  0  0
    9.5484   -2.8063   -9.5378 H   0  0  0  0  0  0  0  0  0  0  0  0
    5.8934    2.0130  -11.0187 C   0  0  0  0  0  0  0  0  0  0  0  0
    5.0731    2.4004  -12.2519 C   0  0  0  0  0  0  0  0  0  0  0  0
    5.7254    1.6392  -13.3852 C   0  0  0  0  0  0  0  0  0  0  0  0
    7.1806    1.6546  -13.0493 N   0  0  0  0  0  0  0  0  0  0  0  0
    7.3203    1.9431  -11.5707 C   0  0  0  0  0  0  0  0  0  0  0  0
    7.6520    2.3805  -13.5890 H   0  0  0  0  0  0  0  0  0  0  0  0
    7.6042    0.7545  -13.2747 H   0  0  0  0  0  0  0  0  0  0  0  0
  1  2  2  0  0  0
  2  3  1  0  0  0
  3  4  2  0  0  0
  4  5  1  0  0  0
  5  6  2  0  0  0
  6  7  1  0  0  0
  7  8  1  0  0  0
  8  9  2  0  0  0
  9 10  1  0  0  0
 10 11  2  0  0  0
 11 12  1  0  0  0
  2 13  1  0  0  0
 13 14  2  0  0  0
 14 15  1  0  0  0
 14 16  1  0  0  0
 16 17  2  0  0  0
 17 19  1  0  0  0
 19 20  1  0  0  0
 20 21  1  0  0  0
 21 22  1  0  0  0
 22 23  1  0  0  0
  3  1  1  0  0  0
 17 11  1  0  0  0
 23 19  1  0  0  0
 10  6  1  0  0  0
  7 18  1  0  0  0
 22 24  1  0  0  0
 22 25  1  0  0  0
M  CHG 1  22   1
M  END
> <minimizedAffinity>
-5.31116

$$$$
benzene_tri_TRP_ALA_PRO


 25 28  0  0  0  0  0  0  0  0999 V2000
    1.2309   -1.2818  -13.4079 C   0  0  0  0  0  0  0  0  0  0  0  0
    2.3876   -0.6125  -13.6552 C   0  0  0  0  0  0  0  0  0  0  0  0
    1.6091   -0.2544  -12.5630 C   0  0  0  0  0  0  0  0  0  0  0  0
    1.4905    0.5381  -11.5189 C   0  0  0  0  0  0  0  0  0  0  0  0
    2.3959    1.6185  -11.2390 C   0  0  0  0  0  0  0  0  0  0  0  0
    3.6880    1.6927  -10.8751 C   0  0  0  0  0  0  0  0  0  0  0  0
    4.2779    2.9492  -10.7848 N   0  0  0  0  0  0  0  0  0  0  0  0
    5.6066    2.8938  -10.4855 C   0  0  0  0  0  0  0  0  0  0  0  0
    5.9960    1.6299  -10.3149 C   0  0  0  0  0  0  0  0  0  0  0  0
    4.8139    0.7539  -10.5396 C   0  0  0  0  0  0  0  0  0  0  0  0
    4.9528   -0.5876  -10.3726 C   0  0  0  0  0  0  0  0  0  0  0  0
    6.3141   -1.1863  -10.0025 C   0  0  0  0  0  0  0  0  0  0  0  0
    3.6891   -1.1866  -13.8548 C   0  0  0  0  0  0  0  0  0  0  0  0
    4.3453   -1.9567  -12.9713 C   0  0  0  0  0  0  0  0  0  0  0  0
    5.6763   -2.5693  -13.2988 C   0  0  0  0  0  0  0  0  0  0  0  0
    3.7870   -2.3099  -11.6690 C   0  0  0  0  0  0  0  0  0  0  0  0
    3.9617   -1.6586  -10.4983 C   0  0  0  0  0  0  0  0  0  0  0  0
    3.7867    3.7912  -10.9228 H   0  0  0  0  0  0  0  0  0  0  0  0
    3.4316   -2.1670   -9.1478 C   0  0  0  0  0  0  0  0  0  0  0  0
    2.4572   -3.3476   -9.1799 C   0  0  0  0  0  0  0  0  0  0  0  0
    1.0972   -2.7018   -9.3295 C   0  0  0  0  0  0  0  0  0  0  0  0
    1.1949   -1.4473   -8.5249 N   0  0  0  0  0  0  0  0  0  0  0  0
    2.6599   -1.1142   -8.3468 C   0  0  0  0  0  0  0  0  0  0  0  0
    0.7589   -1.5867   -7.6134 H   0  0  0  0  0  0  0  0  0  0  0  0
    0.7150   -0.6840   -9.0020 H   0  0  0  0  0  0  0  0  0  0  0  0
  1  2  2  0  0  0
  2  3  1  0  0  0
  3  4  2  0  0  0
  4  5  1  0  0  0
  5  6  2  0  0  0
  6  7  1  0  0  0
  7  8  1  0  0  0
  8  9  2  0  0  0
  9 10  1  0  0  0
 10 11  2  0  0  0
 11 12  1  0  0  0
  2 13  1  0  0  0
 13 14  2  0  0  0
 14 15  1  0  0  0
 14 16  1  0  0  0
 16 17  2  0  0  0
 17 19  1  0  0  0
 19 20  1  0  0  0
 20 21  1  0  0  0
 21 22  1  0  0  0
 22 23  1  0  0  0
  3  1  1  0  0  0
 17 11  1  0  0  0
 23 19  1  0  0  0
 10  6  1  0  0  0
  7 18  1  0  0  0
 22 24  1  0  0  0
 22 25  1  0  0  0
M  CHG 1  22   1
M  END
> <minimizedAffinity>
-5.25826

$$$$
