direct_link_TRP_ALA_direct


 12 13  0  0  0  0  0  0  0  0999 V2000
    0.3650   -2.7734   -8.0170 C   0  0  0  0  0  0  0  0  0  0  0  0
   -0.3611   -3.7015   -8.7927 C   0  0  0  0  0  0  0  0  0  0  0  0
   -0.0374   -3.9538  -10.1247 C   0  0  0  0  0  0  0  0  0  0  0  0
    1.0209   -3.2887  -10.7440 C   0  0  0  0  0  0  0  0  0  0  0  0
    1.7362   -2.3621   -9.9790 C   0  0  0  0  0  0  0  0  0  0  0  0
    2.8072   -1.5700  -10.3288 N   0  0  0  0  0  0  0  0  0  0  0  0
    3.1959   -0.8003   -9.2663 C   0  0  0  0  0  0  0  0  0  0  0  0
    2.3669   -1.0981   -8.2099 C   0  0  0  0  0  0  0  0  0  0  0  0
    1.4363   -2.0886   -8.6431 C   0  0  0  0  0  0  0  0  0  0  0  0
    3.2324   -1.5591  -11.2166 H   0  0  0  0  0  0  0  0  0  0  0  0
   -1.3649   -3.2100   -6.2539 C   0  0  0  0  0  0  0  0  0  0  0  0
   -0.0431   -2.5333   -6.5828 C   0  0  0  0  0  0  0  0  0  0  0  0
 11 12  1  0  0  0
 12  1  1  0  0  0
  1  2  2  0  0  0
  2  3  1  0  0  0
  3  4  2  0  0  0
  4  5  1  0  0  0
  5  6  1  0  0  0
  6  7  1  0  0  0
  7  8  2  0  0  0
  8  9  1  0  0  0
  9  1  1  0  0  0
  9  5  2  0  0  0
  6 10  1  0  0  0
M  END
> <minimizedAffinity>
-5.95783

$$$$
direct_link_TRP_ALA_direct


 12 13  0  0  0  0  0  0  0  0999 V2000
    2.0926   -1.7183   -8.8164 C   0  0  0  0  0  0  0  0  0  0  0  0
    1.4309   -2.3005   -7.7148 C   0  0  0  0  0  0  0  0  0  0  0  0
    0.4415   -3.2677   -7.8832 C   0  0  0  0  0  0  0  0  0  0  0  0
    0.0642   -3.6936   -9.1568 C   0  0  0  0  0  0  0  0  0  0  0  0
    0.7131   -3.1112  -10.2501 C   0  0  0  0  0  0  0  0  0  0  0  0
    0.5405   -3.3334  -11.5982 N   0  0  0  0  0  0  0  0  0  0  0  0
    1.3853   -2.5375  -12.3230 C   0  0  0  0  0  0  0  0  0  0  0  0
    2.1192   -1.7887  -11.4327 C   0  0  0  0  0  0  0  0  0  0  0  0
    1.7079   -2.1410  -10.1132 C   0  0  0  0  0  0  0  0  0  0  0  0
   -0.0995   -3.9736  -11.9853 H   0  0  0  0  0  0  0  0  0  0  0  0
    2.7299    0.6879   -9.1265 C   0  0  0  0  0  0  0  0  0  0  0  0
    3.1465   -0.6648   -8.5697 C   0  0  0  0  0  0  0  0  0  0  0  0
 11 12  1  0  0  0
 12  1  1  0  0  0
  1  2  2  0  0  0
  2  3  1  0  0  0
  3  4  2  0  0  0
  4  5  1  0  0  0
  5  6  1  0  0  0
  6  7  1  0  0  0
  7  8  2  0  0  0
  8  9  1  0  0  0
  9  1  1  0  0  0
  9  5  2  0  0  0
  6 10  1  0  0  0
M  END
> <minimizedAffinity>
-5.10865

$$$$
direct_link_TRP_ALA_direct


 12 13  0  0  0  0  0  0  0  0999 V2000
    1.0709   -2.5746   -8.9506 C   0  0  0  0  0  0  0  0  0  0  0  0
    1.7691   -1.8405   -7.9688 C   0  0  0  0  0  0  0  0  0  0  0  0
    2.7346   -0.8951   -8.3108 C   0  0  0  0  0  0  0  0  0  0  0  0
    3.0506   -0.6433   -9.6459 C   0  0  0  0  0  0  0  0  0  0  0  0
    2.3656   -1.3763  -10.6200 C   0  0  0  0  0  0  0  0  0  0  0  0
    2.4773   -1.3385  -11.9922 N   0  0  0  0  0  0  0  0  0  0  0  0
    1.6156   -2.2347  -12.5639 C   0  0  0  0  0  0  0  0  0  0  0  0
    0.9323   -2.8625  -11.5485 C   0  0  0  0  0  0  0  0  0  0  0  0
    1.3934   -2.3289  -10.3086 C   0  0  0  0  0  0  0  0  0  0  0  0
    3.0897   -0.7506  -12.4906 H   0  0  0  0  0  0  0  0  0  0  0  0
   -0.8072   -3.0813   -7.3670 C   0  0  0  0  0  0  0  0  0  0  0  0
    0.0457   -3.5953   -8.5167 C   0  0  0  0  0  0  0  0  0  0  0  0
 11 12  1  0  0  0
 12  1  1  0  0  0
  1  2  2  0  0  0
  2  3  1  0  0  0
  3  4  2  0  0  0
  4  5  1  0  0  0
  5  6  1  0  0  0
  6  7  1  0  0  0
  7  8  2  0  0  0
  8  9  1  0  0  0
  9  1  1  0  0  0
  9  5  2  0  0  0
  6 10  1  0  0  0
M  END
> <minimizedAffinity>
-4.98972

$$$$
direct_link_TRP_ALA_direct


 12 13  0  0  0  0  0  0  0  0999 V2000
    1.3802   -2.5854  -10.3864 C   0  0  0  0  0  0  0  0  0  0  0  0
    2.5259   -1.7670  -10.4760 C   0  0  0  0  0  0  0  0  0  0  0  0
    3.0668   -1.1401   -9.3549 C   0  0  0  0  0  0  0  0  0  0  0  0
    2.4871   -1.2969   -8.0959 C   0  0  0  0  0  0  0  0  0  0  0  0
    1.3464   -2.1008   -8.0068 C   0  0  0  0  0  0  0  0  0  0  0  0
    0.5773   -2.4211   -6.9101 N   0  0  0  0  0  0  0  0  0  0  0  0
   -0.4571   -3.2380   -7.2774 C   0  0  0  0  0  0  0  0  0  0  0  0
   -0.3576   -3.4537   -8.6322 C   0  0  0  0  0  0  0  0  0  0  0  0
    0.7820   -2.7420   -9.1112 C   0  0  0  0  0  0  0  0  0  0  0  0
    0.7475   -2.1070   -5.9927 H   0  0  0  0  0  0  0  0  0  0  0  0
    1.2222   -2.4459  -12.8859 C   0  0  0  0  0  0  0  0  0  0  0  0
    0.8331   -3.2264  -11.6398 C   0  0  0  0  0  0  0  0  0  0  0  0
 11 12  1  0  0  0
 12  1  1  0  0  0
  1  2  2  0  0  0
  2  3  1  0  0  0
  3  4  2  0  0  0
  4  5  1  0  0  0
  5  6  1  0  0  0
  6  7  1  0  0  0
  7  8  2  0  0  0
  8  9  1  0  0  0
  9  1  1  0  0  0
  9  5  2  0  0  0
  6 10  1  0  0  0
M  END
> <minimizedAffinity>
-4.93584

$$$$
direct_link_TRP_ALA_direct


 12 13  0  0  0  0  0  0  0  0999 V2000
    4.0277   -2.1360  -10.2218 C   0  0  0  0  0  0  0  0  0  0  0  0
    2.9412   -2.9423   -9.8224 C   0  0  0  0  0  0  0  0  0  0  0  0
    2.0625   -2.5410   -8.8175 C   0  0  0  0  0  0  0  0  0  0  0  0
    2.2309   -1.3208   -8.1629 C   0  0  0  0  0  0  0  0  0  0  0  0
    3.3124   -0.5242   -8.5517 C   0  0  0  0  0  0  0  0  0  0  0  0
    3.7157    0.7054   -8.0804 N   0  0  0  0  0  0  0  0  0  0  0  0
    4.8372    1.1239   -8.7435 C   0  0  0  0  0  0  0  0  0  0  0  0
    5.1662    0.1531   -9.6606 C   0  0  0  0  0  0  0  0  0  0  0  0
    4.2086   -0.8987   -9.5547 C   0  0  0  0  0  0  0  0  0  0  0  0
    3.2619    1.2112   -7.3680 H   0  0  0  0  0  0  0  0  0  0  0  0
    4.4409   -2.2683  -12.6924 C   0  0  0  0  0  0  0  0  0  0  0  0
    4.9532   -2.6322  -11.3073 C   0  0  0  0  0  0  0  0  0  0  0  0
 11 12  1  0  0  0
 12  1  1  0  0  0
  1  2  2  0  0  0
  2  3  1  0  0  0
  3  4  2  0  0  0
  4  5  1  0  0  0
  5  6  1  0  0  0
  6  7  1  0  0  0
  7  8  2  0  0  0
  8  9  1  0  0  0
  9  1  1  0  0  0
  9  5  2  0  0  0
  6 10  1  0  0  0
M  END
> <minimizedAffinity>
-4.63198

$$$$
direct_link_TRP_ALA_direct


 12 13  0  0  0  0  0  0  0  0999 V2000
    3.1053   -1.6028   -9.0595 C   0  0  0  0  0  0  0  0  0  0  0  0
    3.2771   -2.6105  -10.0318 C   0  0  0  0  0  0  0  0  0  0  0  0
    4.3613   -2.6051  -10.9076 C   0  0  0  0  0  0  0  0  0  0  0  0
    5.3194   -1.5926  -10.8566 C   0  0  0  0  0  0  0  0  0  0  0  0
    5.1459   -0.5882   -9.8992 C   0  0  0  0  0  0  0  0  0  0  0  0
    5.9211    0.5184   -9.6323 N   0  0  0  0  0  0  0  0  0  0  0  0
    5.3765    1.2442   -8.6081 C   0  0  0  0  0  0  0  0  0  0  0  0
    4.2318    0.5987   -8.2020 C   0  0  0  0  0  0  0  0  0  0  0  0
    4.0711   -0.5669   -9.0082 C   0  0  0  0  0  0  0  0  0  0  0  0
    6.7490    0.7537  -10.1103 H   0  0  0  0  0  0  0  0  0  0  0  0
    1.5839   -3.0806   -7.7202 C   0  0  0  0  0  0  0  0  0  0  0  0
    1.9020   -1.6561   -8.1481 C   0  0  0  0  0  0  0  0  0  0  0  0
 11 12  1  0  0  0
 12  1  1  0  0  0
  1  2  2  0  0  0
  2  3  1  0  0  0
  3  4  2  0  0  0
  4  5  1  0  0  0
  5  6  1  0  0  0
  6  7  1  0  0  0
  7  8  2  0  0  0
  8  9  1  0  0  0
  9  1  1  0  0  0
  9  5  2  0  0  0
  6 10  1  0  0  0
M  END
> <minimizedAffinity>
-4.40165

$$$$
direct_link_TRP_ALA_direct


 12 13  0  0  0  0  0  0  0  0999 V2000
    3.0497   -1.9228   -9.4527 C   0  0  0  0  0  0  0  0  0  0  0  0
    2.8973   -0.8882   -8.5058 C   0  0  0  0  0  0  0  0  0  0  0  0
    3.8704    0.0947   -8.3330 C   0  0  0  0  0  0  0  0  0  0  0  0
    5.0404    0.0869   -9.0924 C   0  0  0  0  0  0  0  0  0  0  0  0
    5.1969   -0.9430  -10.0254 C   0  0  0  0  0  0  0  0  0  0  0  0
    6.2368   -1.1967  -10.8919 N   0  0  0  0  0  0  0  0  0  0  0  0
    5.9782   -2.3208  -11.6281 C   0  0  0  0  0  0  0  0  0  0  0  0
    4.7514   -2.8034  -11.2358 C   0  0  0  0  0  0  0  0  0  0  0  0
    4.2400   -1.9407  -10.2216 C   0  0  0  0  0  0  0  0  0  0  0  0
    7.0502   -0.6476  -10.9705 H   0  0  0  0  0  0  0  0  0  0  0  0
    1.4781   -3.4437   -8.2242 C   0  0  0  0  0  0  0  0  0  0  0  0
    1.9661   -2.9669   -9.5835 C   0  0  0  0  0  0  0  0  0  0  0  0
 11 12  1  0  0  0
 12  1  1  0  0  0
  1  2  2  0  0  0
  2  3  1  0  0  0
  3  4  2  0  0  0
  4  5  1  0  0  0
  5  6  1  0  0  0
  6  7  1  0  0  0
  7  8  2  0  0  0
  8  9  1  0  0  0
  9  1  1  0  0  0
  9  5  2  0  0  0
  6 10  1  0  0  0
M  END
> <minimizedAffinity>
-4.39964

$$$$
direct_link_TRP_ALA_direct


 12 13  0  0  0  0  0  0  0  0999 V2000
    4.2463   -1.8533  -10.2850 C   0  0  0  0  0  0  0  0  0  0  0  0
    4.8368   -0.5769  -10.1727 C   0  0  0  0  0  0  0  0  0  0  0  0
    4.4100    0.3455   -9.2189 C   0  0  0  0  0  0  0  0  0  0  0  0
    3.3726    0.0387   -8.3384 C   0  0  0  0  0  0  0  0  0  0  0  0
    2.7804   -1.2229   -8.4540 C   0  0  0  0  0  0  0  0  0  0  0  0
    1.7495   -1.7821   -7.7320 N   0  0  0  0  0  0  0  0  0  0  0  0
    1.4825   -3.0452   -8.1854 C   0  0  0  0  0  0  0  0  0  0  0  0
    2.3540   -3.3116   -9.2156 C   0  0  0  0  0  0  0  0  0  0  0  0
    3.1864   -2.1678   -9.3984 C   0  0  0  0  0  0  0  0  0  0  0  0
    1.2727   -1.3366   -6.9948 H   0  0  0  0  0  0  0  0  0  0  0  0
    4.4559   -2.2821  -12.7475 C   0  0  0  0  0  0  0  0  0  0  0  0
    4.7435   -2.8039  -11.3481 C   0  0  0  0  0  0  0  0  0  0  0  0
 11 12  1  0  0  0
 12  1  1  0  0  0
  1  2  2  0  0  0
  2  3  1  0  0  0
  3  4  2  0  0  0
  4  5  1  0  0  0
  5  6  1  0  0  0
  6  7  1  0  0  0
  7  8  2  0  0  0
  8  9  1  0  0  0
  9  1  1  0  0  0
  9  5  2  0  0  0
  6 10  1  0  0  0
M  END
> <minimizedAffinity>
-4.37366

$$$$
direct_link_TRP_ALA_direct


 12 13  0  0  0  0  0  0  0  0999 V2000
    2.0717   -2.5884   -9.4727 C   0  0  0  0  0  0  0  0  0  0  0  0
    0.9834   -2.9859  -10.2776 C   0  0  0  0  0  0  0  0  0  0  0  0
    0.9702   -2.7613  -11.6532 C   0  0  0  0  0  0  0  0  0  0  0  0
    2.0385   -2.1262  -12.2864 C   0  0  0  0  0  0  0  0  0  0  0  0
    3.1143   -1.7238  -11.4887 C   0  0  0  0  0  0  0  0  0  0  0  0
    4.2802   -1.0807  -11.8403 N   0  0  0  0  0  0  0  0  0  0  0  0
    5.0595   -0.8718  -10.7351 C   0  0  0  0  0  0  0  0  0  0  0  0
    4.3913   -1.3887   -9.6497 C   0  0  0  0  0  0  0  0  0  0  0  0
    3.1565   -1.9354  -10.1092 C   0  0  0  0  0  0  0  0  0  0  0  0
    4.5189   -0.8098  -12.7562 H   0  0  0  0  0  0  0  0  0  0  0  0
    0.6557   -2.5148   -7.4035 C   0  0  0  0  0  0  0  0  0  0  0  0
    2.0210   -2.8472   -7.9855 C   0  0  0  0  0  0  0  0  0  0  0  0
 11 12  1  0  0  0
 12  1  1  0  0  0
  1  2  2  0  0  0
  2  3  1  0  0  0
  3  4  2  0  0  0
  4  5  1  0  0  0
  5  6  1  0  0  0
  6  7  1  0  0  0
  7  8  2  0  0  0
  8  9  1  0  0  0
  9  1  1  0  0  0
  9  5  2  0  0  0
  6 10  1  0  0  0
M  END
> <minimizedAffinity>
-4.33641

$$$$
