bridge_LYS46_TYR49_sulfonamide_amide_lnk_naphthalene


 23 24  0  0  0  0  0  0  0  0999 V2000
    4.2696    1.3038   -8.8582 C   0  0  0  0  0  0  0  0  0  0  0  0
    5.0623    3.0051   -7.2494 C   0  0  0  0  0  0  0  0  0  0  0  0
    4.8990    3.9145   -8.0555 O   0  0  0  0  0  0  0  0  0  0  0  0
    4.7065    1.6974   -7.5271 N   0  0  0  0  0  0  0  0  0  0  0  0
    4.7498    1.0217   -6.8123 H   0  0  0  0  0  0  0  0  0  0  0  0
    5.5970    3.2168   -5.8648 C   0  0  0  0  0  0  0  0  0  0  0  0
    6.4048    0.8405   -4.9498 N   0  0  0  0  0  0  0  0  0  0  0  0
    7.0594    2.2321   -5.6491 S   0  0  0  0  0  0  0  0  0  0  0  0
    7.9152    2.7662   -4.6172 O   0  0  0  0  0  0  0  0  0  0  0  0
    7.5561    1.7791   -6.9284 O   0  0  0  0  0  0  0  0  0  0  0  0
    7.1505    0.1692   -4.7663 H   0  0  0  0  0  0  0  0  0  0  0  0
    5.7246    0.4272   -5.5876 H   0  0  0  0  0  0  0  0  0  0  0  0
    4.7406   -0.1015   -9.2527 C   0  0  0  0  0  0  0  0  0  0  0  0
    3.5918   -1.0739   -9.3913 C   0  0  0  0  0  0  0  0  0  0  0  0
    3.3878   -1.7772  -10.5823 C   0  0  0  0  0  0  0  0  0  0  0  0
    2.2964   -2.6394  -10.7151 C   0  0  0  0  0  0  0  0  0  0  0  0
    1.3837   -2.8123   -9.6626 C   0  0  0  0  0  0  0  0  0  0  0  0
    0.2774   -3.6694   -9.7810 C   0  0  0  0  0  0  0  0  0  0  0  0
   -0.6197   -3.8263   -8.7228 C   0  0  0  0  0  0  0  0  0  0  0  0
   -0.4229   -3.1292   -7.5341 C   0  0  0  0  0  0  0  0  0  0  0  0
    0.6720   -2.2743   -7.4003 C   0  0  0  0  0  0  0  0  0  0  0  0
    1.5834   -2.1074   -8.4549 C   0  0  0  0  0  0  0  0  0  0  0  0
    2.6886   -1.2510   -8.3331 C   0  0  0  0  0  0  0  0  0  0  0  0
  7  8  1  0  0  0
  8  9  2  0  0  0
  8 10  2  0  0  0
  8  6  1  0  0  0
  6  2  1  0  0  0
  2  3  2  0  0  0
  2  4  1  0  0  0
  4  1  1  0  0  0
  1 13  1  0  0  0
 13 14  1  0  0  0
 14 15  2  0  0  0
 15 16  1  0  0  0
 16 17  2  0  0  0
 17 18  1  0  0  0
 18 19  2  0  0  0
 19 20  1  0  0  0
 20 21  2  0  0  0
 21 22  1  0  0  0
 22 23  2  0  0  0
 23 14  1  0  0  0
 22 17  1  0  0  0
  7 11  1  0  0  0
  7 12  1  0  0  0
  4  5  1  0  0  0
M  END
> <minimizedAffinity>
-7.08642

$$$$
bridge_LYS46_TYR49_sulfonamide_amide_lnk_naphthalene


 23 24  0  0  0  0  0  0  0  0999 V2000
    5.9208    0.0738   -8.4160 C   0  0  0  0  0  0  0  0  0  0  0  0
    7.8828    0.6732   -7.0364 C   0  0  0  0  0  0  0  0  0  0  0  0
    8.4657   -0.3658   -7.3265 O   0  0  0  0  0  0  0  0  0  0  0  0
    6.6596    1.0135   -7.5859 N   0  0  0  0  0  0  0  0  0  0  0  0
    6.2826    1.9063   -7.4124 H   0  0  0  0  0  0  0  0  0  0  0  0
    8.4541    1.7099   -6.1164 C   0  0  0  0  0  0  0  0  0  0  0  0
    6.4676    0.7057   -4.6393 N   0  0  0  0  0  0  0  0  0  0  0  0
    7.2132    2.1915   -4.9404 S   0  0  0  0  0  0  0  0  0  0  0  0
    6.1730    2.9806   -5.5549 O   0  0  0  0  0  0  0  0  0  0  0  0
    7.8229    2.5383   -3.6768 O   0  0  0  0  0  0  0  0  0  0  0  0
    5.7147    0.8340   -3.9632 H   0  0  0  0  0  0  0  0  0  0  0  0
    7.1537    0.0509   -4.2640 H   0  0  0  0  0  0  0  0  0  0  0  0
    4.4888    0.5349   -8.7144 C   0  0  0  0  0  0  0  0  0  0  0  0
    3.5623   -0.6231   -9.0062 C   0  0  0  0  0  0  0  0  0  0  0  0
    3.7165   -1.3900  -10.1651 C   0  0  0  0  0  0  0  0  0  0  0  0
    2.8266   -2.4295  -10.4475 C   0  0  0  0  0  0  0  0  0  0  0  0
    1.7615   -2.7203   -9.5805 C   0  0  0  0  0  0  0  0  0  0  0  0
    0.8535   -3.7569   -9.8520 C   0  0  0  0  0  0  0  0  0  0  0  0
   -0.2003   -4.0292   -8.9777 C   0  0  0  0  0  0  0  0  0  0  0  0
   -0.3600   -3.2697   -7.8220 C   0  0  0  0  0  0  0  0  0  0  0  0
    0.5342   -2.2369   -7.5376 C   0  0  0  0  0  0  0  0  0  0  0  0
    1.5995   -1.9521   -8.4063 C   0  0  0  0  0  0  0  0  0  0  0  0
    2.5058   -0.9163   -8.1316 C   0  0  0  0  0  0  0  0  0  0  0  0
  7  8  1  0  0  0
  8  9  2  0  0  0
  8 10  2  0  0  0
  8  6  1  0  0  0
  6  2  1  0  0  0
  2  3  2  0  0  0
  2  4  1  0  0  0
  4  1  1  0  0  0
  1 13  1  0  0  0
 13 14  1  0  0  0
 14 15  2  0  0  0
 15 16  1  0  0  0
 16 17  2  0  0  0
 17 18  1  0  0  0
 18 19  2  0  0  0
 19 20  1  0  0  0
 20 21  2  0  0  0
 21 22  1  0  0  0
 22 23  2  0  0  0
 23 14  1  0  0  0
 22 17  1  0  0  0
  7 11  1  0  0  0
  7 12  1  0  0  0
  4  5  1  0  0  0
M  END
> <minimizedAffinity>
-6.88197

$$$$
bridge_LYS46_TYR49_sulfonamide_amide_lnk_naphthalene


 23 24  0  0  0  0  0  0  0  0999 V2000
    5.4073   -0.0272   -8.4372 C   0  0  0  0  0  0  0  0  0  0  0  0
    6.2304    1.7623   -6.9433 C   0  0  0  0  0  0  0  0  0  0  0  0
    6.0431    1.0799   -5.9419 O   0  0  0  0  0  0  0  0  0  0  0  0
    6.0209    1.2745   -8.2208 N   0  0  0  0  0  0  0  0  0  0  0  0
    6.2915    1.8171   -8.9965 H   0  0  0  0  0  0  0  0  0  0  0  0
    6.7649    3.1623   -6.8989 C   0  0  0  0  0  0  0  0  0  0  0  0
    4.2383    3.7277   -6.2404 N   0  0  0  0  0  0  0  0  0  0  0  0
    5.4508    4.2987   -7.2689 S   0  0  0  0  0  0  0  0  0  0  0  0
    4.9128    4.0806   -8.5900 O   0  0  0  0  0  0  0  0  0  0  0  0
    5.7584    5.6121   -6.7504 O   0  0  0  0  0  0  0  0  0  0  0  0
    3.4020    4.3014   -6.3494 H   0  0  0  0  0  0  0  0  0  0  0  0
    4.5610    3.7773   -5.2740 H   0  0  0  0  0  0  0  0  0  0  0  0
    4.7210   -0.1467   -9.8036 C   0  0  0  0  0  0  0  0  0  0  0  0
    3.5405   -1.0901   -9.7721 C   0  0  0  0  0  0  0  0  0  0  0  0
    3.1527   -1.7914  -10.9178 C   0  0  0  0  0  0  0  0  0  0  0  0
    2.0326   -2.6261  -10.8894 C   0  0  0  0  0  0  0  0  0  0  0  0
    1.2740   -2.7727   -9.7173 C   0  0  0  0  0  0  0  0  0  0  0  0
    0.1413   -3.6018   -9.6726 C   0  0  0  0  0  0  0  0  0  0  0  0
   -0.6007   -3.7328   -8.4973 C   0  0  0  0  0  0  0  0  0  0  0  0
   -0.2207   -3.0374   -7.3529 C   0  0  0  0  0  0  0  0  0  0  0  0
    0.9029   -2.2102   -7.3808 C   0  0  0  0  0  0  0  0  0  0  0  0
    1.6598   -2.0695   -8.5546 C   0  0  0  0  0  0  0  0  0  0  0  0
    2.7919   -1.2411   -8.5957 C   0  0  0  0  0  0  0  0  0  0  0  0
  7  8  1  0  0  0
  8  9  2  0  0  0
  8 10  2  0  0  0
  8  6  1  0  0  0
  6  2  1  0  0  0
  2  3  2  0  0  0
  2  4  1  0  0  0
  4  1  1  0  0  0
  1 13  1  0  0  0
 13 14  1  0  0  0
 14 15  2  0  0  0
 15 16  1  0  0  0
 16 17  2  0  0  0
 17 18  1  0  0  0
 18 19  2  0  0  0
 19 20  1  0  0  0
 20 21  2  0  0  0
 21 22  1  0  0  0
 22 23  2  0  0  0
 23 14  1  0  0  0
 22 17  1  0  0  0
  7 11  1  0  0  0
  7 12  1  0  0  0
  4  5  1  0  0  0
M  END
> <minimizedAffinity>
-6.81894

$$$$
bridge_LYS46_TYR49_sulfonamide_amide_lnk_naphthalene


 23 24  0  0  0  0  0  0  0  0999 V2000
    4.4365   -0.1058  -11.2885 C   0  0  0  0  0  0  0  0  0  0  0  0
    3.7012    1.7490   -9.8288 C   0  0  0  0  0  0  0  0  0  0  0  0
    2.5434    1.6659  -10.2237 O   0  0  0  0  0  0  0  0  0  0  0  0
    4.6873    0.8686  -10.2371 N   0  0  0  0  0  0  0  0  0  0  0  0
    5.5733    0.9020   -9.8093 H   0  0  0  0  0  0  0  0  0  0  0  0
    4.1578    2.7598   -8.8201 C   0  0  0  0  0  0  0  0  0  0  0  0
    4.8761    2.8283   -6.2479 N   0  0  0  0  0  0  0  0  0  0  0  0
    5.2437    1.9711   -7.6565 S   0  0  0  0  0  0  0  0  0  0  0  0
    6.6260    2.2998   -7.9089 O   0  0  0  0  0  0  0  0  0  0  0  0
    4.7920    0.6275   -7.3752 O   0  0  0  0  0  0  0  0  0  0  0  0
    5.4408    2.4728   -5.4765 H   0  0  0  0  0  0  0  0  0  0  0  0
    3.8871    2.7118   -6.0273 H   0  0  0  0  0  0  0  0  0  0  0  0
    4.5089   -1.5552  -10.7922 C   0  0  0  0  0  0  0  0  0  0  0  0
    3.1634   -2.0748  -10.3402 C   0  0  0  0  0  0  0  0  0  0  0  0
    2.2456   -2.5855  -11.2630 C   0  0  0  0  0  0  0  0  0  0  0  0
    0.9872   -3.0213  -10.8400 C   0  0  0  0  0  0  0  0  0  0  0  0
    0.6185   -2.9505   -9.4873 C   0  0  0  0  0  0  0  0  0  0  0  0
   -0.6445   -3.3775   -9.0454 C   0  0  0  0  0  0  0  0  0  0  0  0
   -0.9925   -3.2973   -7.6958 C   0  0  0  0  0  0  0  0  0  0  0  0
   -0.0837   -2.7899   -6.7714 C   0  0  0  0  0  0  0  0  0  0  0  0
    1.1756   -2.3623   -7.1944 C   0  0  0  0  0  0  0  0  0  0  0  0
    1.5404   -2.4380   -8.5478 C   0  0  0  0  0  0  0  0  0  0  0  0
    2.8037   -2.0116   -8.9861 C   0  0  0  0  0  0  0  0  0  0  0  0
  7  8  1  0  0  0
  8  9  2  0  0  0
  8 10  2  0  0  0
  8  6  1  0  0  0
  6  2  1  0  0  0
  2  3  2  0  0  0
  2  4  1  0  0  0
  4  1  1  0  0  0
  1 13  1  0  0  0
 13 14  1  0  0  0
 14 15  2  0  0  0
 15 16  1  0  0  0
 16 17  2  0  0  0
 17 18  1  0  0  0
 18 19  2  0  0  0
 19 20  1  0  0  0
 20 21  2  0  0  0
 21 22  1  0  0  0
 22 23  2  0  0  0
 23 14  1  0  0  0
 22 17  1  0  0  0
  7 11  1  0  0  0
  7 12  1  0  0  0
  4  5  1  0  0  0
M  END
> <minimizedAffinity>
-6.68589

$$$$
bridge_LYS46_TYR49_sulfonamide_amide_lnk_naphthalene


 23 24  0  0  0  0  0  0  0  0999 V2000
    5.7335   -0.1049  -10.6591 C   0  0  0  0  0  0  0  0  0  0  0  0
    7.8587    0.5973   -9.6094 C   0  0  0  0  0  0  0  0  0  0  0  0
    7.4601    1.7466   -9.4561 O   0  0  0  0  0  0  0  0  0  0  0  0
    7.0521   -0.4036  -10.1208 N   0  0  0  0  0  0  0  0  0  0  0  0
    7.3756   -1.3335  -10.1207 H   0  0  0  0  0  0  0  0  0  0  0  0
    9.2266    0.1378   -9.2026 C   0  0  0  0  0  0  0  0  0  0  0  0
    7.7044   -0.2232   -7.0371 N   0  0  0  0  0  0  0  0  0  0  0  0
    9.0922   -0.8730   -7.7483 S   0  0  0  0  0  0  0  0  0  0  0  0
   10.1364   -0.5802   -6.7963 O   0  0  0  0  0  0  0  0  0  0  0  0
    8.7046   -2.2192   -8.1033 O   0  0  0  0  0  0  0  0  0  0  0  0
    7.5021   -0.7204   -6.1698 H   0  0  0  0  0  0  0  0  0  0  0  0
    6.9163   -0.3217   -7.6772 H   0  0  0  0  0  0  0  0  0  0  0  0
    4.9380   -1.3629  -11.0292 C   0  0  0  0  0  0  0  0  0  0  0  0
    3.7423   -1.5713  -10.1283 C   0  0  0  0  0  0  0  0  0  0  0  0
    3.6212   -0.8710   -8.9244 C   0  0  0  0  0  0  0  0  0  0  0  0
    2.5346   -1.1048   -8.0777 C   0  0  0  0  0  0  0  0  0  0  0  0
    1.5499   -2.0469   -8.4143 C   0  0  0  0  0  0  0  0  0  0  0  0
    0.4547   -2.2998   -7.5721 C   0  0  0  0  0  0  0  0  0  0  0  0
   -0.5133   -3.2421   -7.9243 C   0  0  0  0  0  0  0  0  0  0  0  0
   -0.3992   -3.9433   -9.1215 C   0  0  0  0  0  0  0  0  0  0  0  0
    0.6827   -3.7030   -9.9696 C   0  0  0  0  0  0  0  0  0  0  0  0
    1.6630   -2.7575   -9.6298 C   0  0  0  0  0  0  0  0  0  0  0  0
    2.7557   -2.5063  -10.4741 C   0  0  0  0  0  0  0  0  0  0  0  0
  7  8  1  0  0  0
  8  9  2  0  0  0
  8 10  2  0  0  0
  8  6  1  0  0  0
  6  2  1  0  0  0
  2  3  2  0  0  0
  2  4  1  0  0  0
  4  1  1  0  0  0
  1 13  1  0  0  0
 13 14  1  0  0  0
 14 15  2  0  0  0
 15 16  1  0  0  0
 16 17  2  0  0  0
 17 18  1  0  0  0
 18 19  2  0  0  0
 19 20  1  0  0  0
 20 21  2  0  0  0
 21 22  1  0  0  0
 22 23  2  0  0  0
 23 14  1  0  0  0
 22 17  1  0  0  0
  7 11  1  0  0  0
  7 12  1  0  0  0
  4  5  1  0  0  0
M  END
> <minimizedAffinity>
-6.66389

$$$$
bridge_LYS46_TYR49_sulfonamide_amide_lnk_naphthalene


 23 24  0  0  0  0  0  0  0  0999 V2000
    5.5750    0.6274   -9.5274 C   0  0  0  0  0  0  0  0  0  0  0  0
    8.0012    1.0392   -9.2919 C   0  0  0  0  0  0  0  0  0  0  0  0
    7.8644    2.2437   -9.4757 O   0  0  0  0  0  0  0  0  0  0  0  0
    6.9237    0.1743   -9.2216 N   0  0  0  0  0  0  0  0  0  0  0  0
    7.0718   -0.7632   -8.9603 H   0  0  0  0  0  0  0  0  0  0  0  0
    9.3306    0.3865   -9.0587 C   0  0  0  0  0  0  0  0  0  0  0  0
    8.6908   -1.7406   -7.5745 N   0  0  0  0  0  0  0  0  0  0  0  0
    9.3975   -0.2174   -7.3896 S   0  0  0  0  0  0  0  0  0  0  0  0
    8.4773    0.4872   -6.5298 O   0  0  0  0  0  0  0  0  0  0  0  0
   10.7619   -0.5092   -7.0127 O   0  0  0  0  0  0  0  0  0  0  0  0
    8.6624   -2.2141   -6.6716 H   0  0  0  0  0  0  0  0  0  0  0  0
    9.2416   -2.2935   -8.2312 H   0  0  0  0  0  0  0  0  0  0  0  0
    4.5615    0.2755   -8.4314 C   0  0  0  0  0  0  0  0  0  0  0  0
    3.5644   -0.7662   -8.8850 C   0  0  0  0  0  0  0  0  0  0  0  0
    3.6591   -1.3440  -10.1545 C   0  0  0  0  0  0  0  0  0  0  0  0
    2.7058   -2.2725  -10.5806 C   0  0  0  0  0  0  0  0  0  0  0  0
    1.6358   -2.6383   -9.7488 C   0  0  0  0  0  0  0  0  0  0  0  0
    0.6647   -3.5645  -10.1633 C   0  0  0  0  0  0  0  0  0  0  0  0
   -0.3928   -3.9139   -9.3215 C   0  0  0  0  0  0  0  0  0  0  0  0
   -0.4935   -3.3425   -8.0561 C   0  0  0  0  0  0  0  0  0  0  0  0
    0.4638   -2.4212   -7.6292 C   0  0  0  0  0  0  0  0  0  0  0  0
    1.5336   -2.0611   -8.4636 C   0  0  0  0  0  0  0  0  0  0  0  0
    2.5030   -1.1360   -8.0462 C   0  0  0  0  0  0  0  0  0  0  0  0
  7  8  1  0  0  0
  8  9  2  0  0  0
  8 10  2  0  0  0
  8  6  1  0  0  0
  6  2  1  0  0  0
  2  3  2  0  0  0
  2  4  1  0  0  0
  4  1  1  0  0  0
  1 13  1  0  0  0
 13 14  1  0  0  0
 14 15  2  0  0  0
 15 16  1  0  0  0
 16 17  2  0  0  0
 17 18  1  0  0  0
 18 19  2  0  0  0
 19 20  1  0  0  0
 20 21  2  0  0  0
 21 22  1  0  0  0
 22 23  2  0  0  0
 23 14  1  0  0  0
 22 17  1  0  0  0
  7 11  1  0  0  0
  7 12  1  0  0  0
  4  5  1  0  0  0
M  END
> <minimizedAffinity>
-6.40255

$$$$
bridge_LYS46_TYR49_sulfonamide_amide_lnk_naphthalene


 23 24  0  0  0  0  0  0  0  0999 V2000
    4.0357   -1.1494  -12.8534 C   0  0  0  0  0  0  0  0  0  0  0  0
    2.7248   -2.4529  -14.4947 C   0  0  0  0  0  0  0  0  0  0  0  0
    1.7347   -1.7467  -14.3384 O   0  0  0  0  0  0  0  0  0  0  0  0
    3.9285   -2.1892  -13.8658 N   0  0  0  0  0  0  0  0  0  0  0  0
    4.7259   -2.7138  -14.1072 H   0  0  0  0  0  0  0  0  0  0  0  0
    2.7609   -3.6280  -15.4251 C   0  0  0  0  0  0  0  0  0  0  0  0
    4.1113   -4.9154  -17.3370 N   0  0  0  0  0  0  0  0  0  0  0  0
    4.3819   -3.7544  -16.1400 S   0  0  0  0  0  0  0  0  0  0  0  0
    5.3125   -4.3955  -15.2426 O   0  0  0  0  0  0  0  0  0  0  0  0
    4.7013   -2.5560  -16.8820 O   0  0  0  0  0  0  0  0  0  0  0  0
    4.9799   -5.0923  -17.8417 H   0  0  0  0  0  0  0  0  0  0  0  0
    3.4036   -4.5743  -17.9876 H   0  0  0  0  0  0  0  0  0  0  0  0
    4.5926   -1.6654  -11.5207 C   0  0  0  0  0  0  0  0  0  0  0  0
    3.5272   -1.7634  -10.4530 C   0  0  0  0  0  0  0  0  0  0  0  0
    3.6180   -1.0104   -9.2785 C   0  0  0  0  0  0  0  0  0  0  0  0
    2.6513   -1.1427   -8.2785 C   0  0  0  0  0  0  0  0  0  0  0  0
    1.5773   -2.0339   -8.4293 C   0  0  0  0  0  0  0  0  0  0  0  0
    0.6004   -2.1848   -7.4316 C   0  0  0  0  0  0  0  0  0  0  0  0
   -0.4594   -3.0779   -7.6003 C   0  0  0  0  0  0  0  0  0  0  0  0
   -0.5562   -3.8310   -8.7670 C   0  0  0  0  0  0  0  0  0  0  0  0
    0.4060   -3.6920   -9.7682 C   0  0  0  0  0  0  0  0  0  0  0  0
    1.4764   -2.7971   -9.6137 C   0  0  0  0  0  0  0  0  0  0  0  0
    2.4504   -2.6477  -10.6131 C   0  0  0  0  0  0  0  0  0  0  0  0
  7  8  1  0  0  0
  8  9  2  0  0  0
  8 10  2  0  0  0
  8  6  1  0  0  0
  6  2  1  0  0  0
  2  3  2  0  0  0
  2  4  1  0  0  0
  4  1  1  0  0  0
  1 13  1  0  0  0
 13 14  1  0  0  0
 14 15  2  0  0  0
 15 16  1  0  0  0
 16 17  2  0  0  0
 17 18  1  0  0  0
 18 19  2  0  0  0
 19 20  1  0  0  0
 20 21  2  0  0  0
 21 22  1  0  0  0
 22 23  2  0  0  0
 23 14  1  0  0  0
 22 17  1  0  0  0
  7 11  1  0  0  0
  7 12  1  0  0  0
  4  5  1  0  0  0
M  END
> <minimizedAffinity>
-6.30442

$$$$
bridge_LYS46_TYR49_sulfonamide_amide_lnk_naphthalene


 23 24  0  0  0  0  0  0  0  0999 V2000
   10.1608   -0.1979   -2.3196 C   0  0  0  0  0  0  0  0  0  0  0  0
    9.5300    0.7259   -4.5242 C   0  0  0  0  0  0  0  0  0  0  0  0
    9.8984   -0.2871   -5.1088 O   0  0  0  0  0  0  0  0  0  0  0  0
    9.5473    0.8318   -3.1449 N   0  0  0  0  0  0  0  0  0  0  0  0
    9.1378    1.6169   -2.7145 H   0  0  0  0  0  0  0  0  0  0  0  0
    8.9637    1.9233   -5.2264 C   0  0  0  0  0  0  0  0  0  0  0  0
    6.7100    0.6830   -4.5060 N   0  0  0  0  0  0  0  0  0  0  0  0
    7.3348    2.2499   -4.5981 S   0  0  0  0  0  0  0  0  0  0  0  0
    6.5019    2.8955   -5.5839 O   0  0  0  0  0  0  0  0  0  0  0  0
    7.4023    2.6802   -3.2200 O   0  0  0  0  0  0  0  0  0  0  0  0
    5.7544    0.7184   -4.1511 H   0  0  0  0  0  0  0  0  0  0  0  0
    7.2859    0.1238   -3.8768 H   0  0  0  0  0  0  0  0  0  0  0  0
   11.6123    0.1226   -1.9417 C   0  0  0  0  0  0  0  0  0  0  0  0
   11.7063    0.9769   -0.6983 C   0  0  0  0  0  0  0  0  0  0  0  0
   11.6961    0.3955    0.5732 C   0  0  0  0  0  0  0  0  0  0  0  0
   11.7377    1.1974    1.7166 C   0  0  0  0  0  0  0  0  0  0  0  0
   11.7849    2.5966    1.6128 C   0  0  0  0  0  0  0  0  0  0  0  0
   11.8202    3.4183    2.7513 C   0  0  0  0  0  0  0  0  0  0  0  0
   11.8654    4.8080    2.6267 C   0  0  0  0  0  0  0  0  0  0  0  0
   11.8757    5.3939    1.3639 C   0  0  0  0  0  0  0  0  0  0  0  0
   11.8419    4.5912    0.2229 C   0  0  0  0  0  0  0  0  0  0  0  0
   11.7978    3.1924    0.3321 C   0  0  0  0  0  0  0  0  0  0  0  0
   11.7638    2.3739   -0.8075 C   0  0  0  0  0  0  0  0  0  0  0  0
  7  8  1  0  0  0
  8  9  2  0  0  0
  8 10  2  0  0  0
  8  6  1  0  0  0
  6  2  1  0  0  0
  2  3  2  0  0  0
  2  4  1  0  0  0
  4  1  1  0  0  0
  1 13  1  0  0  0
 13 14  1  0  0  0
 14 15  2  0  0  0
 15 16  1  0  0  0
 16 17  2  0  0  0
 17 18  1  0  0  0
 18 19  2  0  0  0
 19 20  1  0  0  0
 20 21  2  0  0  0
 21 22  1  0  0  0
 22 23  2  0  0  0
 23 14  1  0  0  0
 22 17  1  0  0  0
  7 11  1  0  0  0
  7 12  1  0  0  0
  4  5  1  0  0  0
M  END
> <minimizedAffinity>
-5.90633

$$$$
bridge_LYS46_TYR49_sulfonamide_amide_lnk_naphthalene


 23 24  0  0  0  0  0  0  0  0999 V2000
    6.6387    2.6281   -7.9614 C   0  0  0  0  0  0  0  0  0  0  0  0
    6.7423    1.1670   -5.9699 C   0  0  0  0  0  0  0  0  0  0  0  0
    6.8723    0.1589   -6.6557 O   0  0  0  0  0  0  0  0  0  0  0  0
    6.6982    2.4356   -6.5202 N   0  0  0  0  0  0  0  0  0  0  0  0
    6.7072    3.2212   -5.9268 H   0  0  0  0  0  0  0  0  0  0  0  0
    6.6845    1.1435   -4.4720 C   0  0  0  0  0  0  0  0  0  0  0  0
    9.2741    1.0920   -5.1264 N   0  0  0  0  0  0  0  0  0  0  0  0
    8.2925    1.5260   -3.8217 S   0  0  0  0  0  0  0  0  0  0  0  0
    8.6791    0.6065   -2.7789 O   0  0  0  0  0  0  0  0  0  0  0  0
    8.4665    2.9568   -3.7149 O   0  0  0  0  0  0  0  0  0  0  0  0
   10.2511    1.2628   -4.8884 H   0  0  0  0  0  0  0  0  0  0  0  0
    9.0206    1.6488   -5.9425 H   0  0  0  0  0  0  0  0  0  0  0  0
    5.2088    2.5802   -8.5141 C   0  0  0  0  0  0  0  0  0  0  0  0
    4.7997    1.1848   -8.9268 C   0  0  0  0  0  0  0  0  0  0  0  0
    5.4711    0.5155   -9.9544 C   0  0  0  0  0  0  0  0  0  0  0  0
    5.0557   -0.7559  -10.3584 C   0  0  0  0  0  0  0  0  0  0  0  0
    3.9578   -1.3820   -9.7476 C   0  0  0  0  0  0  0  0  0  0  0  0
    3.5221   -2.6565  -10.1455 C   0  0  0  0  0  0  0  0  0  0  0  0
    2.4269   -3.2614   -9.5262 C   0  0  0  0  0  0  0  0  0  0  0  0
    1.7535   -2.6009   -8.5024 C   0  0  0  0  0  0  0  0  0  0  0  0
    2.1745   -1.3344   -8.0949 C   0  0  0  0  0  0  0  0  0  0  0  0
    3.2749   -0.7140   -8.7070 C   0  0  0  0  0  0  0  0  0  0  0  0
    3.7086    0.5593   -8.3063 C   0  0  0  0  0  0  0  0  0  0  0  0
  7  8  1  0  0  0
  8  9  2  0  0  0
  8 10  2  0  0  0
  8  6  1  0  0  0
  6  2  1  0  0  0
  2  3  2  0  0  0
  2  4  1  0  0  0
  4  1  1  0  0  0
  1 13  1  0  0  0
 13 14  1  0  0  0
 14 15  2  0  0  0
 15 16  1  0  0  0
 16 17  2  0  0  0
 17 18  1  0  0  0
 18 19  2  0  0  0
 19 20  1  0  0  0
 20 21  2  0  0  0
 21 22  1  0  0  0
 22 23  2  0  0  0
 23 14  1  0  0  0
 22 17  1  0  0  0
  7 11  1  0  0  0
  7 12  1  0  0  0
  4  5  1  0  0  0
M  END
> <minimizedAffinity>
-5.59332

$$$$
