bridge_LYS46_TYR49_carboxylic_acid_ether3_naphthalene


 18 19  0  0  0  0  0  0  0  0999 V2000
    3.6352   -1.0288   -9.2809 C   0  0  0  0  0  0  0  0  0  0  0  0
    3.4728   -1.7304  -10.4797 C   0  0  0  0  0  0  0  0  0  0  0  0
    2.3857   -2.5904  -10.6546 C   0  0  0  0  0  0  0  0  0  0  0  0
    1.4396   -2.7704   -9.6339 C   0  0  0  0  0  0  0  0  0  0  0  0
    0.3421   -3.6321   -9.7944 C   0  0  0  0  0  0  0  0  0  0  0  0
   -0.5887   -3.8008   -8.7679 C   0  0  0  0  0  0  0  0  0  0  0  0
   -0.4342   -3.1110   -7.5691 C   0  0  0  0  0  0  0  0  0  0  0  0
    0.6511   -2.2509   -7.3944 C   0  0  0  0  0  0  0  0  0  0  0  0
    1.5959   -2.0694   -8.4175 C   0  0  0  0  0  0  0  0  0  0  0  0
    2.6934   -1.2070   -8.2570 C   0  0  0  0  0  0  0  0  0  0  0  0
    4.8172   -0.1069   -9.0814 C   0  0  0  0  0  0  0  0  0  0  0  0
    4.5542    0.9612   -8.0171 C   0  0  0  0  0  0  0  0  0  0  0  0
    5.4115    0.7403   -6.8931 O   0  0  0  0  0  0  0  0  0  0  0  0
    5.6929    1.9304   -6.1695 C   0  0  0  0  0  0  0  0  0  0  0  0
    7.2196    2.6115   -4.3512 O   0  0  0  0  0  0  0  0  0  0  0  0
    6.5211    1.7738   -4.8977 C   0  0  0  0  0  0  0  0  0  0  0  0
    6.4257    0.5301   -4.3785 O   0  0  0  0  0  0  0  0  0  0  0  0
    5.8891   -0.1131   -4.7985 H   0  0  0  0  0  0  0  0  0  0  0  0
 15 16  2  0  0  0
 16 17  1  0  0  0
 16 14  1  0  0  0
 14 13  1  0  0  0
 13 12  1  0  0  0
 12 11  1  0  0  0
 11  1  1  0  0  0
  1  2  2  0  0  0
  2  3  1  0  0  0
  3  4  2  0  0  0
  4  5  1  0  0  0
  5  6  2  0  0  0
  6  7  1  0  0  0
  7  8  2  0  0  0
  8  9  1  0  0  0
  9 10  2  0  0  0
 10  1  1  0  0  0
  9  4  1  0  0  0
 17 18  1  0  0  0
M  END
> <minimizedAffinity>
-6.97526

$$$$
bridge_LYS46_TYR49_carboxylic_acid_ether3_naphthalene


 18 19  0  0  0  0  0  0  0  0999 V2000
    3.7564   -1.6943  -10.1167 C   0  0  0  0  0  0  0  0  0  0  0  0
    3.6506   -0.9086   -8.9646 C   0  0  0  0  0  0  0  0  0  0  0  0
    2.5742   -1.0768   -8.0898 C   0  0  0  0  0  0  0  0  0  0  0  0
    1.5789   -2.0313   -8.3494 C   0  0  0  0  0  0  0  0  0  0  0  0
    0.4905   -2.2115   -7.4800 C   0  0  0  0  0  0  0  0  0  0  0  0
   -0.4918   -3.1645   -7.7546 C   0  0  0  0  0  0  0  0  0  0  0  0
   -0.3987   -3.9487   -8.9005 C   0  0  0  0  0  0  0  0  0  0  0  0
    0.6770   -3.7816   -9.7741 C   0  0  0  0  0  0  0  0  0  0  0  0
    1.6740   -2.8279   -9.5121 C   0  0  0  0  0  0  0  0  0  0  0  0
    2.7629   -2.6482  -10.3815 C   0  0  0  0  0  0  0  0  0  0  0  0
    4.9122   -1.5072  -11.0738 C   0  0  0  0  0  0  0  0  0  0  0  0
    5.9790   -0.5564  -10.5255 C   0  0  0  0  0  0  0  0  0  0  0  0
    7.2473   -1.2184  -10.5050 O   0  0  0  0  0  0  0  0  0  0  0  0
    8.0666   -0.8109   -9.4179 C   0  0  0  0  0  0  0  0  0  0  0  0
    9.3369   -2.9009   -9.0727 O   0  0  0  0  0  0  0  0  0  0  0  0
    8.7573   -1.9218   -8.6326 C   0  0  0  0  0  0  0  0  0  0  0  0
    8.6662   -1.7334   -7.2977 O   0  0  0  0  0  0  0  0  0  0  0  0
    8.2210   -0.9813   -6.9600 H   0  0  0  0  0  0  0  0  0  0  0  0
 15 16  2  0  0  0
 16 17  1  0  0  0
 16 14  1  0  0  0
 14 13  1  0  0  0
 13 12  1  0  0  0
 12 11  1  0  0  0
 11  1  1  0  0  0
  1  2  2  0  0  0
  2  3  1  0  0  0
  3  4  2  0  0  0
  4  5  1  0  0  0
  5  6  2  0  0  0
  6  7  1  0  0  0
  7  8  2  0  0  0
  8  9  1  0  0  0
  9 10  2  0  0  0
 10  1  1  0  0  0
  9  4  1  0  0  0
 17 18  1  0  0  0
M  END
> <minimizedAffinity>
-6.22639

$$$$
bridge_LYS46_TYR49_carboxylic_acid_ether3_naphthalene


 18 19  0  0  0  0  0  0  0  0999 V2000
    3.4202   -1.7220  -10.3973 C   0  0  0  0  0  0  0  0  0  0  0  0
    3.5020   -0.9463   -9.2366 C   0  0  0  0  0  0  0  0  0  0  0  0
    2.5617   -1.1005   -8.2147 C   0  0  0  0  0  0  0  0  0  0  0  0
    1.5176   -2.0307   -8.3325 C   0  0  0  0  0  0  0  0  0  0  0  0
    0.5643   -2.1965   -7.3144 C   0  0  0  0  0  0  0  0  0  0  0  0
   -0.4691   -3.1253   -7.4490 C   0  0  0  0  0  0  0  0  0  0  0  0
   -0.5626   -3.8992   -8.6018 C   0  0  0  0  0  0  0  0  0  0  0  0
    0.3773   -3.7462   -9.6224 C   0  0  0  0  0  0  0  0  0  0  0  0
    1.4234   -2.8169   -9.5024 C   0  0  0  0  0  0  0  0  0  0  0  0
    2.3771   -2.6515  -10.5206 C   0  0  0  0  0  0  0  0  0  0  0  0
    4.4275   -1.5498  -11.5121 C   0  0  0  0  0  0  0  0  0  0  0  0
    3.9953   -2.2454  -12.8051 C   0  0  0  0  0  0  0  0  0  0  0  0
    3.2148   -1.3448  -13.5970 O   0  0  0  0  0  0  0  0  0  0  0  0
    2.2418   -2.0082  -14.3921 C   0  0  0  0  0  0  0  0  0  0  0  0
    0.4369   -3.5243  -13.6541 O   0  0  0  0  0  0  0  0  0  0  0  0
    0.9524   -2.4191  -13.6875 C   0  0  0  0  0  0  0  0  0  0  0  0
    0.3650   -1.3798  -13.0549 O   0  0  0  0  0  0  0  0  0  0  0  0
    0.7612   -0.5311  -13.0807 H   0  0  0  0  0  0  0  0  0  0  0  0
 15 16  2  0  0  0
 16 17  1  0  0  0
 16 14  1  0  0  0
 14 13  1  0  0  0
 13 12  1  0  0  0
 12 11  1  0  0  0
 11  1  1  0  0  0
  1  2  2  0  0  0
  2  3  1  0  0  0
  3  4  2  0  0  0
  4  5  1  0  0  0
  5  6  2  0  0  0
  6  7  1  0  0  0
  7  8  2  0  0  0
  8  9  1  0  0  0
  9 10  2  0  0  0
 10  1  1  0  0  0
  9  4  1  0  0  0
 17 18  1  0  0  0
M  END
> <minimizedAffinity>
-6.15026

$$$$
bridge_LYS46_TYR49_carboxylic_acid_ether3_naphthalene


 18 19  0  0  0  0  0  0  0  0999 V2000
    3.6250   -0.9578   -9.2035 C   0  0  0  0  0  0  0  0  0  0  0  0
    3.5204   -1.6222  -10.4296 C   0  0  0  0  0  0  0  0  0  0  0  0
    2.4613   -2.5011  -10.6701 C   0  0  0  0  0  0  0  0  0  0  0  0
    1.4861   -2.7376   -9.6892 C   0  0  0  0  0  0  0  0  0  0  0  0
    0.4161   -3.6189   -9.9158 C   0  0  0  0  0  0  0  0  0  0  0  0
   -0.5443   -3.8439   -8.9281 C   0  0  0  0  0  0  0  0  0  0  0  0
   -0.4474   -3.1915   -7.7026 C   0  0  0  0  0  0  0  0  0  0  0  0
    0.6100   -2.3125   -7.4624 C   0  0  0  0  0  0  0  0  0  0  0  0
    1.5840   -2.0745   -8.4457 C   0  0  0  0  0  0  0  0  0  0  0  0
    2.6538   -1.1925   -8.2192 C   0  0  0  0  0  0  0  0  0  0  0  0
    4.7766   -0.0156   -8.9331 C   0  0  0  0  0  0  0  0  0  0  0  0
    5.8663   -0.0994  -10.0046 C   0  0  0  0  0  0  0  0  0  0  0  0
    6.8015   -1.1256   -9.6590 O   0  0  0  0  0  0  0  0  0  0  0  0
    7.7972   -1.3244  -10.6531 C   0  0  0  0  0  0  0  0  0  0  0  0
    6.4462   -2.9637  -11.9135 O   0  0  0  0  0  0  0  0  0  0  0  0
    7.4287   -2.2478  -11.8103 C   0  0  0  0  0  0  0  0  0  0  0  0
    8.3527   -2.2219  -12.7958 O   0  0  0  0  0  0  0  0  0  0  0  0
    9.1072   -1.6719  -12.7163 H   0  0  0  0  0  0  0  0  0  0  0  0
 15 16  2  0  0  0
 16 17  1  0  0  0
 16 14  1  0  0  0
 14 13  1  0  0  0
 13 12  1  0  0  0
 12 11  1  0  0  0
 11  1  1  0  0  0
  1  2  2  0  0  0
  2  3  1  0  0  0
  3  4  2  0  0  0
  4  5  1  0  0  0
  5  6  2  0  0  0
  6  7  1  0  0  0
  7  8  2  0  0  0
  8  9  1  0  0  0
  9 10  2  0  0  0
 10  1  1  0  0  0
  9  4  1  0  0  0
 17 18  1  0  0  0
M  END
> <minimizedAffinity>
-5.90582

$$$$
bridge_LYS46_TYR49_carboxylic_acid_ether3_naphthalene


 18 19  0  0  0  0  0  0  0  0999 V2000
    3.4853   -1.6321  -10.5458 C   0  0  0  0  0  0  0  0  0  0  0  0
    3.6128   -0.9384   -9.3382 C   0  0  0  0  0  0  0  0  0  0  0  0
    2.6900   -1.1358   -8.3078 C   0  0  0  0  0  0  0  0  0  0  0  0
    1.6183   -2.0281   -8.4634 C   0  0  0  0  0  0  0  0  0  0  0  0
    0.6822   -2.2366   -7.4372 C   0  0  0  0  0  0  0  0  0  0  0  0
   -0.3792   -3.1267   -7.6096 C   0  0  0  0  0  0  0  0  0  0  0  0
   -0.5182   -3.8190   -8.8089 C   0  0  0  0  0  0  0  0  0  0  0  0
    0.4041   -3.6228   -9.8381 C   0  0  0  0  0  0  0  0  0  0  0  0
    1.4779   -2.7315   -9.6804 C   0  0  0  0  0  0  0  0  0  0  0  0
    2.4144   -2.5235  -10.7068 C   0  0  0  0  0  0  0  0  0  0  0  0
    4.4735   -1.4123  -11.6691 C   0  0  0  0  0  0  0  0  0  0  0  0
    3.8146   -1.4722  -13.0493 C   0  0  0  0  0  0  0  0  0  0  0  0
    4.6195   -2.2599  -13.9318 O   0  0  0  0  0  0  0  0  0  0  0  0
    3.8784   -3.2685  -14.6045 C   0  0  0  0  0  0  0  0  0  0  0  0
    5.8070   -4.0300  -15.9469 O   0  0  0  0  0  0  0  0  0  0  0  0
    4.6638   -4.1759  -15.5466 C   0  0  0  0  0  0  0  0  0  0  0  0
    3.9374   -5.2416  -15.9495 O   0  0  0  0  0  0  0  0  0  0  0  0
    3.0594   -5.3534  -15.6419 H   0  0  0  0  0  0  0  0  0  0  0  0
 15 16  2  0  0  0
 16 17  1  0  0  0
 16 14  1  0  0  0
 14 13  1  0  0  0
 13 12  1  0  0  0
 12 11  1  0  0  0
 11  1  1  0  0  0
  1  2  2  0  0  0
  2  3  1  0  0  0
  3  4  2  0  0  0
  4  5  1  0  0  0
  5  6  2  0  0  0
  6  7  1  0  0  0
  7  8  2  0  0  0
  8  9  1  0  0  0
  9 10  2  0  0  0
 10  1  1  0  0  0
  9  4  1  0  0  0
 17 18  1  0  0  0
M  END
> <minimizedAffinity>
-5.87242

$$$$
bridge_LYS46_TYR49_carboxylic_acid_ether3_naphthalene


 18 19  0  0  0  0  0  0  0  0999 V2000
    3.6241   -1.5691  -10.3630 C   0  0  0  0  0  0  0  0  0  0  0  0
    3.6491   -0.8987   -9.1359 C   0  0  0  0  0  0  0  0  0  0  0  0
    2.6540   -1.1303   -8.1828 C   0  0  0  0  0  0  0  0  0  0  0  0
    1.6111   -2.0340   -8.4370 C   0  0  0  0  0  0  0  0  0  0  0  0
    0.6032   -2.2767   -7.4892 C   0  0  0  0  0  0  0  0  0  0  0  0
   -0.4282   -3.1777   -7.7594 C   0  0  0  0  0  0  0  0  0  0  0  0
   -0.4652   -3.8468   -8.9791 C   0  0  0  0  0  0  0  0  0  0  0  0
    0.5293   -3.6166   -9.9311 C   0  0  0  0  0  0  0  0  0  0  0  0
    1.5741   -2.7139   -9.6747 C   0  0  0  0  0  0  0  0  0  0  0  0
    2.5825   -2.4717  -10.6225 C   0  0  0  0  0  0  0  0  0  0  0  0
    4.6912   -1.3122  -11.4034 C   0  0  0  0  0  0  0  0  0  0  0  0
    4.7881   -2.4396  -12.4341 C   0  0  0  0  0  0  0  0  0  0  0  0
    6.1586   -2.8085  -12.6147 O   0  0  0  0  0  0  0  0  0  0  0  0
    7.0144   -2.2621  -11.6206 C   0  0  0  0  0  0  0  0  0  0  0  0
    8.8827   -0.6480  -11.6898 O   0  0  0  0  0  0  0  0  0  0  0  0
    8.3207   -1.6454  -12.1113 C   0  0  0  0  0  0  0  0  0  0  0  0
    8.8538   -2.3369  -13.1424 O   0  0  0  0  0  0  0  0  0  0  0  0
    8.4219   -3.1029  -13.4660 H   0  0  0  0  0  0  0  0  0  0  0  0
 15 16  2  0  0  0
 16 17  1  0  0  0
 16 14  1  0  0  0
 14 13  1  0  0  0
 13 12  1  0  0  0
 12 11  1  0  0  0
 11  1  1  0  0  0
  1  2  2  0  0  0
  2  3  1  0  0  0
  3  4  2  0  0  0
  4  5  1  0  0  0
  5  6  2  0  0  0
  6  7  1  0  0  0
  7  8  2  0  0  0
  8  9  1  0  0  0
  9 10  2  0  0  0
 10  1  1  0  0  0
  9  4  1  0  0  0
 17 18  1  0  0  0
M  END
> <minimizedAffinity>
-5.81585

$$$$
bridge_LYS46_TYR49_carboxylic_acid_ether3_naphthalene


 18 19  0  0  0  0  0  0  0  0999 V2000
    3.5880   -1.6066  -10.2758 C   0  0  0  0  0  0  0  0  0  0  0  0
    3.5783   -0.8873   -9.0765 C   0  0  0  0  0  0  0  0  0  0  0  0
    2.5693   -1.0979   -8.1332 C   0  0  0  0  0  0  0  0  0  0  0  0
    1.5466   -2.0291   -8.3698 C   0  0  0  0  0  0  0  0  0  0  0  0
    0.5251   -2.2512   -7.4317 C   0  0  0  0  0  0  0  0  0  0  0  0
   -0.4858   -3.1802   -7.6842 C   0  0  0  0  0  0  0  0  0  0  0  0
   -0.4883   -3.8982   -8.8763 C   0  0  0  0  0  0  0  0  0  0  0  0
    0.5202   -3.6889   -9.8184 C   0  0  0  0  0  0  0  0  0  0  0  0
    1.5447   -2.7586   -9.5796 C   0  0  0  0  0  0  0  0  0  0  0  0
    2.5667   -2.5370  -10.5177 C   0  0  0  0  0  0  0  0  0  0  0  0
    4.6703   -1.3731  -11.3059 C   0  0  0  0  0  0  0  0  0  0  0  0
    4.8009    0.1015  -11.6945 C   0  0  0  0  0  0  0  0  0  0  0  0
    3.6932    0.4813  -12.5166 O   0  0  0  0  0  0  0  0  0  0  0  0
    2.8854    1.4898  -11.9252 C   0  0  0  0  0  0  0  0  0  0  0  0
    1.2997    1.9956  -13.7502 O   0  0  0  0  0  0  0  0  0  0  0  0
    1.5308    1.7467  -12.5785 C   0  0  0  0  0  0  0  0  0  0  0  0
    0.5165    1.6827  -11.6882 O   0  0  0  0  0  0  0  0  0  0  0  0
    0.6943    1.4915  -10.7883 H   0  0  0  0  0  0  0  0  0  0  0  0
 15 16  2  0  0  0
 16 17  1  0  0  0
 16 14  1  0  0  0
 14 13  1  0  0  0
 13 12  1  0  0  0
 12 11  1  0  0  0
 11  1  1  0  0  0
  1  2  2  0  0  0
  2  3  1  0  0  0
  3  4  2  0  0  0
  4  5  1  0  0  0
  5  6  2  0  0  0
  6  7  1  0  0  0
  7  8  2  0  0  0
  8  9  1  0  0  0
  9 10  2  0  0  0
 10  1  1  0  0  0
  9  4  1  0  0  0
 17 18  1  0  0  0
M  END
> <minimizedAffinity>
-5.64374

$$$$
bridge_LYS46_TYR49_carboxylic_acid_ether3_naphthalene


 18 19  0  0  0  0  0  0  0  0999 V2000
    3.2401   -0.4817  -10.4236 C   0  0  0  0  0  0  0  0  0  0  0  0
    3.2736   -0.2452   -9.0457 C   0  0  0  0  0  0  0  0  0  0  0  0
    2.4780   -0.9988   -8.1789 C   0  0  0  0  0  0  0  0  0  0  0  0
    1.6294   -2.0022   -8.6709 C   0  0  0  0  0  0  0  0  0  0  0  0
    0.8231   -2.7674   -7.8123 C   0  0  0  0  0  0  0  0  0  0  0  0
   -0.0169   -3.7605   -8.3190 C   0  0  0  0  0  0  0  0  0  0  0  0
   -0.0614   -4.0011   -9.6890 C   0  0  0  0  0  0  0  0  0  0  0  0
    0.7341   -3.2493  -10.5551 C   0  0  0  0  0  0  0  0  0  0  0  0
    1.5850   -2.2470  -10.0615 C   0  0  0  0  0  0  0  0  0  0  0  0
    2.3919   -1.4822  -10.9203 C   0  0  0  0  0  0  0  0  0  0  0  0
    4.0893    0.3399  -11.3675 C   0  0  0  0  0  0  0  0  0  0  0  0
    4.8349    1.4693  -10.6525 C   0  0  0  0  0  0  0  0  0  0  0  0
    4.0026    2.6315  -10.5927 O   0  0  0  0  0  0  0  0  0  0  0  0
    4.5895    3.6949   -9.8552 C   0  0  0  0  0  0  0  0  0  0  0  0
    6.1720    3.3908   -7.9832 O   0  0  0  0  0  0  0  0  0  0  0  0
    5.0383    3.3706   -8.4335 C   0  0  0  0  0  0  0  0  0  0  0  0
    4.0022    3.0195   -7.6406 O   0  0  0  0  0  0  0  0  0  0  0  0
    3.1316    3.0041   -7.9868 H   0  0  0  0  0  0  0  0  0  0  0  0
 15 16  2  0  0  0
 16 17  1  0  0  0
 16 14  1  0  0  0
 14 13  1  0  0  0
 13 12  1  0  0  0
 12 11  1  0  0  0
 11  1  1  0  0  0
  1  2  2  0  0  0
  2  3  1  0  0  0
  3  4  2  0  0  0
  4  5  1  0  0  0
  5  6  2  0  0  0
  6  7  1  0  0  0
  7  8  2  0  0  0
  8  9  1  0  0  0
  9 10  2  0  0  0
 10  1  1  0  0  0
  9  4  1  0  0  0
 17 18  1  0  0  0
M  END
> <minimizedAffinity>
-5.32611

$$$$
bridge_LYS46_TYR49_carboxylic_acid_ether3_naphthalene


 18 19  0  0  0  0  0  0  0  0999 V2000
    4.0874    0.1768   -9.3390 C   0  0  0  0  0  0  0  0  0  0  0  0
    3.8359    1.2530  -10.1959 C   0  0  0  0  0  0  0  0  0  0  0  0
    4.0935    2.5624   -9.7819 C   0  0  0  0  0  0  0  0  0  0  0  0
    4.6047    2.8244   -8.5016 C   0  0  0  0  0  0  0  0  0  0  0  0
    4.8679    4.1351   -8.0708 C   0  0  0  0  0  0  0  0  0  0  0  0
    5.3746    4.3779   -6.7930 C   0  0  0  0  0  0  0  0  0  0  0  0
    5.6243    3.3146   -5.9305 C   0  0  0  0  0  0  0  0  0  0  0  0
    5.3681    2.0063   -6.3441 C   0  0  0  0  0  0  0  0  0  0  0  0
    4.8590    1.7450   -7.6266 C   0  0  0  0  0  0  0  0  0  0  0  0
    4.5963    0.4339   -8.0576 C   0  0  0  0  0  0  0  0  0  0  0  0
    3.7979   -1.2413   -9.7772 C   0  0  0  0  0  0  0  0  0  0  0  0
    2.3510   -1.4277  -10.2403 C   0  0  0  0  0  0  0  0  0  0  0  0
    1.4626   -1.2044   -9.1413 O   0  0  0  0  0  0  0  0  0  0  0  0
    1.6723   -2.1107   -8.0672 C   0  0  0  0  0  0  0  0  0  0  0  0
    0.0650   -2.3623   -6.2086 O   0  0  0  0  0  0  0  0  0  0  0  0
    0.4245   -2.6130   -7.3471 C   0  0  0  0  0  0  0  0  0  0  0  0
   -0.3150   -3.4347   -8.1240 O   0  0  0  0  0  0  0  0  0  0  0  0
   -0.0387   -3.6271   -8.9984 H   0  0  0  0  0  0  0  0  0  0  0  0
 15 16  2  0  0  0
 16 17  1  0  0  0
 16 14  1  0  0  0
 14 13  1  0  0  0
 13 12  1  0  0  0
 12 11  1  0  0  0
 11  1  1  0  0  0
  1  2  2  0  0  0
  2  3  1  0  0  0
  3  4  2  0  0  0
  4  5  1  0  0  0
  5  6  2  0  0  0
  6  7  1  0  0  0
  7  8  2  0  0  0
  8  9  1  0  0  0
  9 10  2  0  0  0
 10  1  1  0  0  0
  9  4  1  0  0  0
 17 18  1  0  0  0
M  END
> <minimizedAffinity>
-5.29599

$$$$
