reduced_peptide_TRP_ALA_PRO_C4


 41 43  0  0  0  0  0  0  0  0999 V2000
    7.6556   -2.2119  -11.3456 C   0  0  0  0  0  0  0  0  0  0  0  0
    8.6359   -2.1897  -12.0798 O   0  0  0  0  0  0  0  0  0  0  0  0
    7.7083   -1.9100  -10.0003 N   0  0  0  0  0  0  0  0  0  0  0  0
    6.8844   -1.9847   -9.4666 H   0  0  0  0  0  0  0  0  0  0  0  0
    6.2618   -2.6075  -11.7966 C   0  0  0  0  0  0  0  0  0  0  0  0
    5.1393   -1.9985  -10.9579 C   0  0  0  0  0  0  0  0  0  0  0  0
    5.0885   -0.4735  -11.0750 C   0  0  0  0  0  0  0  0  0  0  0  0
    4.4702    0.2196   -9.8557 C   0  0  0  0  0  0  0  0  0  0  0  0
    3.8116   -0.7416   -8.8588 C   0  0  0  0  0  0  0  0  0  0  0  0
    2.2871   -0.5879   -8.8009 C   0  0  0  0  0  0  0  0  0  0  0  0
    1.1411   -2.5882   -6.9451 N   0  0  0  0  0  0  0  0  0  0  0  0
    1.0826   -2.8041   -8.3387 C   0  0  0  0  0  0  0  0  0  0  0  0
    0.3135   -3.8835   -8.7960 C   0  0  0  0  0  0  0  0  0  0  0  0
    0.1098   -4.1302  -10.1549 C   0  0  0  0  0  0  0  0  0  0  0  0
    0.6681   -3.2255  -11.0559 C   0  0  0  0  0  0  0  0  0  0  0  0
    0.6195   -3.2127  -12.4325 N   0  0  0  0  0  0  0  0  0  0  0  0
    1.2808   -2.1194  -12.9197 C   0  0  0  0  0  0  0  0  0  0  0  0
    1.7645   -1.4117  -11.8432 C   0  0  0  0  0  0  0  0  0  0  0  0
    1.3908   -2.1037  -10.6503 C   0  0  0  0  0  0  0  0  0  0  0  0
    1.5928   -1.8540   -9.2620 C   0  0  0  0  0  0  0  0  0  0  0  0
    0.7798   -3.2637   -6.3267 H   0  0  0  0  0  0  0  0  0  0  0  0
    1.5433   -1.7621   -6.5914 H   0  0  0  0  0  0  0  0  0  0  0  0
    0.1728   -3.8931  -12.9862 H   0  0  0  0  0  0  0  0  0  0  0  0
    8.9259   -1.4882   -9.3428 C   0  0  0  0  0  0  0  0  0  0  0  0
    8.7084   -1.1905   -7.8590 C   0  0  0  0  0  0  0  0  0  0  0  0
    9.8103   -0.3582   -7.1977 C   0  0  0  0  0  0  0  0  0  0  0  0
    9.3670    0.9400   -6.5116 C   0  0  0  0  0  0  0  0  0  0  0  0
    8.9467    0.7769   -5.0468 C   0  0  0  0  0  0  0  0  0  0  0  0
    7.5482    1.3194   -4.7591 C   0  0  0  0  0  0  0  0  0  0  0  0
    6.7330    1.4509   -6.0273 C   0  0  0  0  0  0  0  0  0  0  0  0
    6.0876    0.5274   -6.5100 O   0  0  0  0  0  0  0  0  0  0  0  0
    6.7612    2.7084   -6.6056 N   0  0  0  0  0  0  0  0  0  0  0  0
    7.2241    3.4520   -6.1563 H   0  0  0  0  0  0  0  0  0  0  0  0
    6.1009    2.9197   -7.8820 C   0  0  0  0  0  0  0  0  0  0  0  0
    5.1999    4.1538   -7.8754 C   0  0  0  0  0  0  0  0  0  0  0  0
    4.9254    4.3826   -9.3441 C   0  0  0  0  0  0  0  0  0  0  0  0
    6.2220    4.0411  -10.0206 N   0  0  0  0  0  0  0  0  0  0  0  0
    7.0534    3.2323   -9.0513 C   0  0  0  0  0  0  0  0  0  0  0  0
    7.5971    1.9978   -9.7452 C   0  0  0  0  0  0  0  0  0  0  0  0
    6.7174    4.8965  -10.2721 H   0  0  0  0  0  0  0  0  0  0  0  0
    6.0484    3.5063  -10.8717 H   0  0  0  0  0  0  0  0  0  0  0  0
 11 12  1  0  0  0
 12 13  2  0  0  0
 13 14  1  0  0  0
 14 15  2  0  0  0
 15 16  1  0  0  0
 16 17  1  0  0  0
 17 18  2  0  0  0
 18 19  1  0  0  0
 19 20  2  0  0  0
 20 10  1  0  0  0
 10  9  1  0  0  0
  9  8  1  0  0  0
  8  7  1  0  0  0
  7  6  1  0  0  0
  6  5  1  0  0  0
  5  1  1  0  0  0
  1  2  2  0  0  0
  1  3  1  0  0  0
  3 24  1  0  0  0
 24 25  1  0  0  0
 25 26  1  0  0  0
 26 27  1  0  0  0
 27 28  1  0  0  0
 28 29  1  0  0  0
 29 30  1  0  0  0
 30 31  2  0  0  0
 30 32  1  0  0  0
 34 32  1  0  0  0
 34 35  1  0  0  0
 35 36  1  0  0  0
 36 37  1  0  0  0
 37 38  1  0  0  0
 38 39  1  0  0  0
 20 12  1  0  0  0
 38 34  1  0  0  0
 19 15  1  0  0  0
 11 21  1  0  0  0
 11 22  1  0  0  0
 16 23  1  0  0  0
  3  4  1  0  0  0
 32 33  1  0  0  0
 37 40  1  0  0  0
 37 41  1  0  0  0
M  CHG 1  37   1
M  END
> <minimizedAffinity>
-5.84155

$$$$
reduced_peptide_TRP_ALA_PRO_C4


 41 43  0  0  0  0  0  0  0  0999 V2000
    9.7816   -1.6508  -12.4414 C   0  0  0  0  0  0  0  0  0  0  0  0
    9.4538   -2.4998  -13.2613 O   0  0  0  0  0  0  0  0  0  0  0  0
    9.1917   -0.4060  -12.3611 N   0  0  0  0  0  0  0  0  0  0  0  0
    9.5335    0.2371  -11.6987 H   0  0  0  0  0  0  0  0  0  0  0  0
   10.8985   -1.8291  -11.4300 C   0  0  0  0  0  0  0  0  0  0  0  0
   10.7090   -3.0237  -10.4966 C   0  0  0  0  0  0  0  0  0  0  0  0
    9.2922   -3.0930   -9.9222 C   0  0  0  0  0  0  0  0  0  0  0  0
    9.0225   -2.0656   -8.8172 C   0  0  0  0  0  0  0  0  0  0  0  0
    7.7773   -1.2034   -9.0573 C   0  0  0  0  0  0  0  0  0  0  0  0
    8.0463    0.2953   -8.8768 C   0  0  0  0  0  0  0  0  0  0  0  0
    8.5642    0.2715   -5.9631 N   0  0  0  0  0  0  0  0  0  0  0  0
    7.3738    0.8415   -6.4632 C   0  0  0  0  0  0  0  0  0  0  0  0
    6.5615    1.5428   -5.5608 C   0  0  0  0  0  0  0  0  0  0  0  0
    5.4135    2.2252   -5.9673 C   0  0  0  0  0  0  0  0  0  0  0  0
    5.1223    2.2243   -7.3301 C   0  0  0  0  0  0  0  0  0  0  0  0
    4.0779    2.8156   -8.0061 N   0  0  0  0  0  0  0  0  0  0  0  0
    4.1939    2.5883   -9.3495 C   0  0  0  0  0  0  0  0  0  0  0  0
    5.3311    1.8394   -9.5481 C   0  0  0  0  0  0  0  0  0  0  0  0
    5.9304    1.5923   -8.2750 C   0  0  0  0  0  0  0  0  0  0  0  0
    7.1034    0.9002   -7.8557 C   0  0  0  0  0  0  0  0  0  0  0  0
    8.7267    0.2436   -4.9925 H   0  0  0  0  0  0  0  0  0  0  0  0
    9.2321   -0.0982   -6.5848 H   0  0  0  0  0  0  0  0  0  0  0  0
    3.3519    3.3284   -7.5827 H   0  0  0  0  0  0  0  0  0  0  0  0
    8.0911   -0.0082  -13.2114 C   0  0  0  0  0  0  0  0  0  0  0  0
    6.7746    0.0978  -12.4413 C   0  0  0  0  0  0  0  0  0  0  0  0
    6.0090   -1.2188  -12.2841 C   0  0  0  0  0  0  0  0  0  0  0  0
    5.1048   -1.6271  -13.4538 C   0  0  0  0  0  0  0  0  0  0  0  0
    3.8677   -2.4378  -13.0521 C   0  0  0  0  0  0  0  0  0  0  0  0
    2.5567   -1.6917  -13.2920 C   0  0  0  0  0  0  0  0  0  0  0  0
    1.8260   -1.4237  -11.9943 C   0  0  0  0  0  0  0  0  0  0  0  0
    1.2472   -0.3702  -11.7543 O   0  0  0  0  0  0  0  0  0  0  0  0
    1.8502   -2.4710  -11.0893 N   0  0  0  0  0  0  0  0  0  0  0  0
    2.2555   -3.3332  -11.3376 H   0  0  0  0  0  0  0  0  0  0  0  0
    1.2717   -2.2852   -9.7701 C   0  0  0  0  0  0  0  0  0  0  0  0
    0.4227   -3.4778   -9.3322 C   0  0  0  0  0  0  0  0  0  0  0  0
    0.2406   -3.2403   -7.8506 C   0  0  0  0  0  0  0  0  0  0  0  0
    1.5582   -2.6766   -7.4014 N   0  0  0  0  0  0  0  0  0  0  0  0
    2.3003   -2.1953   -8.6271 C   0  0  0  0  0  0  0  0  0  0  0  0
    2.8314   -0.7943   -8.3901 C   0  0  0  0  0  0  0  0  0  0  0  0
    2.1013   -3.3993   -6.9291 H   0  0  0  0  0  0  0  0  0  0  0  0
    1.4110   -1.9057   -6.7499 H   0  0  0  0  0  0  0  0  0  0  0  0
 11 12  1  0  0  0
 12 13  2  0  0  0
 13 14  1  0  0  0
 14 15  2  0  0  0
 15 16  1  0  0  0
 16 17  1  0  0  0
 17 18  2  0  0  0
 18 19  1  0  0  0
 19 20  2  0  0  0
 20 10  1  0  0  0
 10  9  1  0  0  0
  9  8  1  0  0  0
  8  7  1  0  0  0
  7  6  1  0  0  0
  6  5  1  0  0  0
  5  1  1  0  0  0
  1  2  2  0  0  0
  1  3  1  0  0  0
  3 24  1  0  0  0
 24 25  1  0  0  0
 25 26  1  0  0  0
 26 27  1  0  0  0
 27 28  1  0  0  0
 28 29  1  0  0  0
 29 30  1  0  0  0
 30 31  2  0  0  0
 30 32  1  0  0  0
 34 32  1  0  0  0
 34 35  1  0  0  0
 35 36  1  0  0  0
 36 37  1  0  0  0
 37 38  1  0  0  0
 38 39  1  0  0  0
 20 12  1  0  0  0
 38 34  1  0  0  0
 19 15  1  0  0  0
 11 21  1  0  0  0
 11 22  1  0  0  0
 16 23  1  0  0  0
  3  4  1  0  0  0
 32 33  1  0  0  0
 37 40  1  0  0  0
 37 41  1  0  0  0
M  CHG 1  37   1
M  END
> <minimizedAffinity>
-5.72381

$$$$
reduced_peptide_TRP_ALA_PRO_C4


 41 43  0  0  0  0  0  0  0  0999 V2000
    2.2134    1.1042  -11.5196 C   0  0  0  0  0  0  0  0  0  0  0  0
    1.5248    1.5205  -10.5961 O   0  0  0  0  0  0  0  0  0  0  0  0
    3.3383    1.7566  -11.9812 N   0  0  0  0  0  0  0  0  0  0  0  0
    3.8207    1.3790  -12.7519 H   0  0  0  0  0  0  0  0  0  0  0  0
    1.9110   -0.1571  -12.3071 C   0  0  0  0  0  0  0  0  0  0  0  0
    2.9223   -0.4595  -13.4116 C   0  0  0  0  0  0  0  0  0  0  0  0
    2.7853   -1.8855  -13.9500 C   0  0  0  0  0  0  0  0  0  0  0  0
    4.0331   -2.7494  -13.7357 C   0  0  0  0  0  0  0  0  0  0  0  0
    5.1023   -2.0934  -12.8537 C   0  0  0  0  0  0  0  0  0  0  0  0
    5.2473   -2.7737  -11.4872 C   0  0  0  0  0  0  0  0  0  0  0  0
    6.8379   -0.4684  -10.5313 N   0  0  0  0  0  0  0  0  0  0  0  0
    5.6041   -0.7764   -9.9190 C   0  0  0  0  0  0  0  0  0  0  0  0
    5.0926    0.1430   -8.9922 C   0  0  0  0  0  0  0  0  0  0  0  0
    3.8381   -0.0155   -8.4005 C   0  0  0  0  0  0  0  0  0  0  0  0
    3.0792   -1.1126   -8.8034 C   0  0  0  0  0  0  0  0  0  0  0  0
    1.8213   -1.5059   -8.4029 N   0  0  0  0  0  0  0  0  0  0  0  0
    1.4391   -2.6313   -9.0790 C   0  0  0  0  0  0  0  0  0  0  0  0
    2.4638   -2.9726   -9.9317 C   0  0  0  0  0  0  0  0  0  0  0  0
    3.5178   -2.0226   -9.7651 C   0  0  0  0  0  0  0  0  0  0  0  0
    4.7975   -1.8545  -10.3691 C   0  0  0  0  0  0  0  0  0  0  0  0
    7.3778    0.2849  -10.1992 H   0  0  0  0  0  0  0  0  0  0  0  0
    7.1587   -1.0069  -11.2905 H   0  0  0  0  0  0  0  0  0  0  0  0
    1.2755   -1.0430   -7.7267 H   0  0  0  0  0  0  0  0  0  0  0  0
    3.8369    2.9732  -11.3780 C   0  0  0  0  0  0  0  0  0  0  0  0
    5.3571    2.9576  -11.2165 C   0  0  0  0  0  0  0  0  0  0  0  0
    5.8808    3.6453   -9.9528 C   0  0  0  0  0  0  0  0  0  0  0  0
    4.8811    3.8116   -8.8014 C   0  0  0  0  0  0  0  0  0  0  0  0
    5.5091    4.2198   -7.4643 C   0  0  0  0  0  0  0  0  0  0  0  0
    5.0364    3.3624   -6.2920 C   0  0  0  0  0  0  0  0  0  0  0  0
    6.0367    2.2761   -5.9610 C   0  0  0  0  0  0  0  0  0  0  0  0
    5.7116    1.1440   -5.6219 O   0  0  0  0  0  0  0  0  0  0  0  0
    7.3630    2.6550   -6.0793 N   0  0  0  0  0  0  0  0  0  0  0  0
    7.5963    3.5458   -6.4276 H   0  0  0  0  0  0  0  0  0  0  0  0
    8.4067    1.7253   -5.6846 C   0  0  0  0  0  0  0  0  0  0  0  0
    9.6683    1.8693   -6.5346 C   0  0  0  0  0  0  0  0  0  0  0  0
   10.7025    1.1041   -5.7412 C   0  0  0  0  0  0  0  0  0  0  0  0
   10.3694    1.4081   -4.3087 N   0  0  0  0  0  0  0  0  0  0  0  0
    8.9582    1.9477   -4.2638 C   0  0  0  0  0  0  0  0  0  0  0  0
    8.1688    1.2350   -3.1820 C   0  0  0  0  0  0  0  0  0  0  0  0
   11.0184    2.1044   -3.9423 H   0  0  0  0  0  0  0  0  0  0  0  0
   10.4454    0.5648   -3.7398 H   0  0  0  0  0  0  0  0  0  0  0  0
 11 12  1  0  0  0
 12 13  2  0  0  0
 13 14  1  0  0  0
 14 15  2  0  0  0
 15 16  1  0  0  0
 16 17  1  0  0  0
 17 18  2  0  0  0
 18 19  1  0  0  0
 19 20  2  0  0  0
 20 10  1  0  0  0
 10  9  1  0  0  0
  9  8  1  0  0  0
  8  7  1  0  0  0
  7  6  1  0  0  0
  6  5  1  0  0  0
  5  1  1  0  0  0
  1  2  2  0  0  0
  1  3  1  0  0  0
  3 24  1  0  0  0
 24 25  1  0  0  0
 25 26  1  0  0  0
 26 27  1  0  0  0
 27 28  1  0  0  0
 28 29  1  0  0  0
 29 30  1  0  0  0
 30 31  2  0  0  0
 30 32  1  0  0  0
 34 32  1  0  0  0
 34 35  1  0  0  0
 35 36  1  0  0  0
 36 37  1  0  0  0
 37 38  1  0  0  0
 38 39  1  0  0  0
 20 12  1  0  0  0
 38 34  1  0  0  0
 19 15  1  0  0  0
 11 21  1  0  0  0
 11 22  1  0  0  0
 16 23  1  0  0  0
  3  4  1  0  0  0
 32 33  1  0  0  0
 37 40  1  0  0  0
 37 41  1  0  0  0
M  CHG 1  37   1
M  END
> <minimizedAffinity>
-5.68708

$$$$
reduced_peptide_TRP_ALA_PRO_C4


 41 43  0  0  0  0  0  0  0  0999 V2000
    7.6658    0.1943   -8.2385 C   0  0  0  0  0  0  0  0  0  0  0  0
    7.6347    1.2366   -8.8813 O   0  0  0  0  0  0  0  0  0  0  0  0
    7.7239    0.1542   -6.8605 N   0  0  0  0  0  0  0  0  0  0  0  0
    7.7825   -0.7219   -6.4153 H   0  0  0  0  0  0  0  0  0  0  0  0
    7.6832   -1.1899   -8.8597 C   0  0  0  0  0  0  0  0  0  0  0  0
    8.2762   -1.2339  -10.2671 C   0  0  0  0  0  0  0  0  0  0  0  0
    7.9379   -2.5342  -10.9996 C   0  0  0  0  0  0  0  0  0  0  0  0
    6.8769   -2.3692  -12.0934 C   0  0  0  0  0  0  0  0  0  0  0  0
    5.5224   -3.0002  -11.7491 C   0  0  0  0  0  0  0  0  0  0  0  0
    4.3523   -2.0215  -11.9040 C   0  0  0  0  0  0  0  0  0  0  0  0
    5.3478    0.6784  -11.2128 N   0  0  0  0  0  0  0  0  0  0  0  0
    4.5655   -0.0435  -10.2861 C   0  0  0  0  0  0  0  0  0  0  0  0
    4.1365    0.6317   -9.1345 C   0  0  0  0  0  0  0  0  0  0  0  0
    3.2810    0.0434   -8.2013 C   0  0  0  0  0  0  0  0  0  0  0  0
    2.8234   -1.2429   -8.4807 C   0  0  0  0  0  0  0  0  0  0  0  0
    1.9745   -2.0504   -7.7563 N   0  0  0  0  0  0  0  0  0  0  0  0
    1.7654   -3.2301   -8.4155 C   0  0  0  0  0  0  0  0  0  0  0  0
    2.4883   -3.1867   -9.5856 C   0  0  0  0  0  0  0  0  0  0  0  0
    3.1729   -1.9339   -9.6407 C   0  0  0  0  0  0  0  0  0  0  0  0
    4.0433   -1.3276  -10.5922 C   0  0  0  0  0  0  0  0  0  0  0  0
    5.6976    1.5674  -10.9748 H   0  0  0  0  0  0  0  0  0  0  0  0
    5.5437    0.2930  -12.0973 H   0  0  0  0  0  0  0  0  0  0  0  0
    1.5756   -1.8124   -6.8882 H   0  0  0  0  0  0  0  0  0  0  0  0
    7.7020    1.3481   -6.0439 C   0  0  0  0  0  0  0  0  0  0  0  0
    6.3944    1.4919   -5.2649 C   0  0  0  0  0  0  0  0  0  0  0  0
    5.3323    2.3649   -5.9387 C   0  0  0  0  0  0  0  0  0  0  0  0
    5.8457    3.4552   -6.8875 C   0  0  0  0  0  0  0  0  0  0  0  0
    4.8595    3.8595   -7.9889 C   0  0  0  0  0  0  0  0  0  0  0  0
    5.5429    4.4564   -9.2175 C   0  0  0  0  0  0  0  0  0  0  0  0
    4.5820    4.5829  -10.3797 C   0  0  0  0  0  0  0  0  0  0  0  0
    3.9361    3.6402  -10.8232 O   0  0  0  0  0  0  0  0  0  0  0  0
    4.4761    5.8585  -10.9070 N   0  0  0  0  0  0  0  0  0  0  0  0
    4.9468    6.6122  -10.4833 H   0  0  0  0  0  0  0  0  0  0  0  0
    3.6636    6.0737  -12.0916 C   0  0  0  0  0  0  0  0  0  0  0  0
    2.8603    7.3716  -12.0200 C   0  0  0  0  0  0  0  0  0  0  0  0
    2.4039    7.5686  -13.4474 C   0  0  0  0  0  0  0  0  0  0  0  0
    3.5686    7.1067  -14.2755 N   0  0  0  0  0  0  0  0  0  0  0  0
    4.4664    6.2724  -13.3909 C   0  0  0  0  0  0  0  0  0  0  0  0
    4.8224    4.9767  -14.0949 C   0  0  0  0  0  0  0  0  0  0  0  0
    4.0834    7.9130  -14.6296 H   0  0  0  0  0  0  0  0  0  0  0  0
    3.2432    6.5569  -15.0706 H   0  0  0  0  0  0  0  0  0  0  0  0
 11 12  1  0  0  0
 12 13  2  0  0  0
 13 14  1  0  0  0
 14 15  2  0  0  0
 15 16  1  0  0  0
 16 17  1  0  0  0
 17 18  2  0  0  0
 18 19  1  0  0  0
 19 20  2  0  0  0
 20 10  1  0  0  0
 10  9  1  0  0  0
  9  8  1  0  0  0
  8  7  1  0  0  0
  7  6  1  0  0  0
  6  5  1  0  0  0
  5  1  1  0  0  0
  1  2  2  0  0  0
  1  3  1  0  0  0
  3 24  1  0  0  0
 24 25  1  0  0  0
 25 26  1  0  0  0
 26 27  1  0  0  0
 27 28  1  0  0  0
 28 29  1  0  0  0
 29 30  1  0  0  0
 30 31  2  0  0  0
 30 32  1  0  0  0
 34 32  1  0  0  0
 34 35  1  0  0  0
 35 36  1  0  0  0
 36 37  1  0  0  0
 37 38  1  0  0  0
 38 39  1  0  0  0
 20 12  1  0  0  0
 38 34  1  0  0  0
 19 15  1  0  0  0
 11 21  1  0  0  0
 11 22  1  0  0  0
 16 23  1  0  0  0
  3  4  1  0  0  0
 32 33  1  0  0  0
 37 40  1  0  0  0
 37 41  1  0  0  0
M  CHG 1  37   1
M  END
> <minimizedAffinity>
-5.62675

$$$$
reduced_peptide_TRP_ALA_PRO_C4


 41 43  0  0  0  0  0  0  0  0999 V2000
    4.8578    1.2890  -10.2430 C   0  0  0  0  0  0  0  0  0  0  0  0
    4.9677    1.4852  -11.4471 O   0  0  0  0  0  0  0  0  0  0  0  0
    5.3515    0.1674   -9.6088 N   0  0  0  0  0  0  0  0  0  0  0  0
    5.1930    0.0624   -8.6429 H   0  0  0  0  0  0  0  0  0  0  0  0
    4.1368    2.2236   -9.2895 C   0  0  0  0  0  0  0  0  0  0  0  0
    4.9383    3.4683   -8.9119 C   0  0  0  0  0  0  0  0  0  0  0  0
    5.9536    3.1906   -7.8011 C   0  0  0  0  0  0  0  0  0  0  0  0
    5.3666    2.4383   -6.6015 C   0  0  0  0  0  0  0  0  0  0  0  0
    6.1779    2.5940   -5.3095 C   0  0  0  0  0  0  0  0  0  0  0  0
    6.7700    1.2692   -4.8143 C   0  0  0  0  0  0  0  0  0  0  0  0
    7.8490   -0.1785   -7.1591 N   0  0  0  0  0  0  0  0  0  0  0  0
    8.7290    0.4491   -6.2515 C   0  0  0  0  0  0  0  0  0  0  0  0
   10.0848    0.5145   -6.6027 C   0  0  0  0  0  0  0  0  0  0  0  0
   11.0237    1.1951   -5.8253 C   0  0  0  0  0  0  0  0  0  0  0  0
   10.5519    1.8571   -4.6935 C   0  0  0  0  0  0  0  0  0  0  0  0
   11.2384    2.6062   -3.7634 N   0  0  0  0  0  0  0  0  0  0  0  0
   10.3761    3.1037   -2.8259 C   0  0  0  0  0  0  0  0  0  0  0  0
    9.1112    2.6719   -3.1533 C   0  0  0  0  0  0  0  0  0  0  0  0
    9.2044    1.8723   -4.3337 C   0  0  0  0  0  0  0  0  0  0  0  0
    8.2493    1.1794   -5.1326 C   0  0  0  0  0  0  0  0  0  0  0  0
    8.2084   -0.6789   -7.9270 H   0  0  0  0  0  0  0  0  0  0  0  0
    6.8758   -0.1160   -7.0243 H   0  0  0  0  0  0  0  0  0  0  0  0
   12.2106    2.7613   -3.7723 H   0  0  0  0  0  0  0  0  0  0  0  0
    6.0927   -0.8604  -10.3067 C   0  0  0  0  0  0  0  0  0  0  0  0
    5.2146   -2.0558  -10.6772 C   0  0  0  0  0  0  0  0  0  0  0  0
    5.6832   -2.8485  -11.9005 C   0  0  0  0  0  0  0  0  0  0  0  0
    4.8942   -2.6322  -13.1979 C   0  0  0  0  0  0  0  0  0  0  0  0
    3.7721   -1.5931  -13.0973 C   0  0  0  0  0  0  0  0  0  0  0  0
    2.3771   -2.2149  -13.0842 C   0  0  0  0  0  0  0  0  0  0  0  0
    1.6095   -1.8282  -11.8386 C   0  0  0  0  0  0  0  0  0  0  0  0
    1.1010   -0.7246  -11.6782 O   0  0  0  0  0  0  0  0  0  0  0  0
    1.5134   -2.8268  -10.8847 N   0  0  0  0  0  0  0  0  0  0  0  0
    1.8639   -3.7278  -11.0711 H   0  0  0  0  0  0  0  0  0  0  0  0
    0.8904   -2.5322   -9.6062 C   0  0  0  0  0  0  0  0  0  0  0  0
   -0.0205   -3.6616   -9.1270 C   0  0  0  0  0  0  0  0  0  0  0  0
   -0.2522   -3.3185   -7.6733 C   0  0  0  0  0  0  0  0  0  0  0  0
    1.0670   -2.7731   -7.2069 N   0  0  0  0  0  0  0  0  0  0  0  0
    1.8753   -2.4021   -8.4291 C   0  0  0  0  0  0  0  0  0  0  0  0
    2.4498   -1.0081   -8.2626 C   0  0  0  0  0  0  0  0  0  0  0  0
    1.5628   -3.4812   -6.6655 H   0  0  0  0  0  0  0  0  0  0  0  0
    0.9237   -1.9553   -6.6143 H   0  0  0  0  0  0  0  0  0  0  0  0
 11 12  1  0  0  0
 12 13  2  0  0  0
 13 14  1  0  0  0
 14 15  2  0  0  0
 15 16  1  0  0  0
 16 17  1  0  0  0
 17 18  2  0  0  0
 18 19  1  0  0  0
 19 20  2  0  0  0
 20 10  1  0  0  0
 10  9  1  0  0  0
  9  8  1  0  0  0
  8  7  1  0  0  0
  7  6  1  0  0  0
  6  5  1  0  0  0
  5  1  1  0  0  0
  1  2  2  0  0  0
  1  3  1  0  0  0
  3 24  1  0  0  0
 24 25  1  0  0  0
 25 26  1  0  0  0
 26 27  1  0  0  0
 27 28  1  0  0  0
 28 29  1  0  0  0
 29 30  1  0  0  0
 30 31  2  0  0  0
 30 32  1  0  0  0
 34 32  1  0  0  0
 34 35  1  0  0  0
 35 36  1  0  0  0
 36 37  1  0  0  0
 37 38  1  0  0  0
 38 39  1  0  0  0
 20 12  1  0  0  0
 38 34  1  0  0  0
 19 15  1  0  0  0
 11 21  1  0  0  0
 11 22  1  0  0  0
 16 23  1  0  0  0
  3  4  1  0  0  0
 32 33  1  0  0  0
 37 40  1  0  0  0
 37 41  1  0  0  0
M  CHG 1  37   1
M  END
> <minimizedAffinity>
-5.56210

$$$$
reduced_peptide_TRP_ALA_PRO_C4


 41 43  0  0  0  0  0  0  0  0999 V2000
    6.7332   -1.5952  -10.5282 C   0  0  0  0  0  0  0  0  0  0  0  0
    7.7565   -2.1016  -10.9721 O   0  0  0  0  0  0  0  0  0  0  0  0
    6.7330   -0.5474   -9.6304 N   0  0  0  0  0  0  0  0  0  0  0  0
    5.8703   -0.2165   -9.2905 H   0  0  0  0  0  0  0  0  0  0  0  0
    5.3318   -2.0668  -10.8687 C   0  0  0  0  0  0  0  0  0  0  0  0
    5.2548   -2.9381  -12.1214 C   0  0  0  0  0  0  0  0  0  0  0  0
    4.9993   -2.1155  -13.3863 C   0  0  0  0  0  0  0  0  0  0  0  0
    3.7000   -1.3035  -13.3433 C   0  0  0  0  0  0  0  0  0  0  0  0
    2.4442   -2.1482  -13.0966 C   0  0  0  0  0  0  0  0  0  0  0  0
    1.3642   -1.3949  -12.3109 C   0  0  0  0  0  0  0  0  0  0  0  0
    0.3556   -3.7756  -10.8708 N   0  0  0  0  0  0  0  0  0  0  0  0
    1.0054   -2.7440  -10.1598 C   0  0  0  0  0  0  0  0  0  0  0  0
    1.3097   -2.9779   -8.8112 C   0  0  0  0  0  0  0  0  0  0  0  0
    2.0345   -2.0656   -8.0421 C   0  0  0  0  0  0  0  0  0  0  0  0
    2.4925   -0.9162   -8.6831 C   0  0  0  0  0  0  0  0  0  0  0  0
    3.2305    0.1341   -8.1832 N   0  0  0  0  0  0  0  0  0  0  0  0
    3.4895    1.0436   -9.1710 C   0  0  0  0  0  0  0  0  0  0  0  0
    2.9120    0.5759  -10.3291 C   0  0  0  0  0  0  0  0  0  0  0  0
    2.2677   -0.6653  -10.0366 C   0  0  0  0  0  0  0  0  0  0  0  0
    1.5307   -1.6013  -10.8184 C   0  0  0  0  0  0  0  0  0  0  0  0
    0.0004   -4.5573  -10.3891 H   0  0  0  0  0  0  0  0  0  0  0  0
    0.2575   -3.7134  -11.8484 H   0  0  0  0  0  0  0  0  0  0  0  0
    3.5287    0.2179   -7.2487 H   0  0  0  0  0  0  0  0  0  0  0  0
    7.9497    0.0843   -9.1687 C   0  0  0  0  0  0  0  0  0  0  0  0
    8.0380    0.1232   -7.6429 C   0  0  0  0  0  0  0  0  0  0  0  0
    8.8329    1.2998   -7.0703 C   0  0  0  0  0  0  0  0  0  0  0  0
    8.0179    2.4145   -6.4027 C   0  0  0  0  0  0  0  0  0  0  0  0
    6.5650    2.0421   -6.0874 C   0  0  0  0  0  0  0  0  0  0  0  0
    6.4250    1.1726   -4.8395 C   0  0  0  0  0  0  0  0  0  0  0  0
    7.4639    1.5267   -3.7977 C   0  0  0  0  0  0  0  0  0  0  0  0
    7.4841    2.6005   -3.2069 O   0  0  0  0  0  0  0  0  0  0  0  0
    8.3966    0.5342   -3.5497 N   0  0  0  0  0  0  0  0  0  0  0  0
    8.3119   -0.3466   -3.9812 H   0  0  0  0  0  0  0  0  0  0  0  0
    9.5013    0.8054   -2.6465 C   0  0  0  0  0  0  0  0  0  0  0  0
    9.7545   -0.3448   -1.6729 C   0  0  0  0  0  0  0  0  0  0  0  0
   11.1191   -0.0199   -1.1098 C   0  0  0  0  0  0  0  0  0  0  0  0
   11.8765    0.5446   -2.2774 N   0  0  0  0  0  0  0  0  0  0  0  0
   10.8723    0.9417   -3.3351 C   0  0  0  0  0  0  0  0  0  0  0  0
   11.1726    2.3441   -3.8292 C   0  0  0  0  0  0  0  0  0  0  0  0
   12.5128   -0.1598   -2.6509 H   0  0  0  0  0  0  0  0  0  0  0  0
   12.4252    1.3539   -1.9870 H   0  0  0  0  0  0  0  0  0  0  0  0
 11 12  1  0  0  0
 12 13  2  0  0  0
 13 14  1  0  0  0
 14 15  2  0  0  0
 15 16  1  0  0  0
 16 17  1  0  0  0
 17 18  2  0  0  0
 18 19  1  0  0  0
 19 20  2  0  0  0
 20 10  1  0  0  0
 10  9  1  0  0  0
  9  8  1  0  0  0
  8  7  1  0  0  0
  7  6  1  0  0  0
  6  5  1  0  0  0
  5  1  1  0  0  0
  1  2  2  0  0  0
  1  3  1  0  0  0
  3 24  1  0  0  0
 24 25  1  0  0  0
 25 26  1  0  0  0
 26 27  1  0  0  0
 27 28  1  0  0  0
 28 29  1  0  0  0
 29 30  1  0  0  0
 30 31  2  0  0  0
 30 32  1  0  0  0
 34 32  1  0  0  0
 34 35  1  0  0  0
 35 36  1  0  0  0
 36 37  1  0  0  0
 37 38  1  0  0  0
 38 39  1  0  0  0
 20 12  1  0  0  0
 38 34  1  0  0  0
 19 15  1  0  0  0
 11 21  1  0  0  0
 11 22  1  0  0  0
 16 23  1  0  0  0
  3  4  1  0  0  0
 32 33  1  0  0  0
 37 40  1  0  0  0
 37 41  1  0  0  0
M  CHG 1  37   1
M  END
> <minimizedAffinity>
-5.55688

$$$$
reduced_peptide_TRP_ALA_PRO_C4


 41 43  0  0  0  0  0  0  0  0999 V2000
    8.8558    2.4875   -5.3867 C   0  0  0  0  0  0  0  0  0  0  0  0
    9.2465    3.6140   -5.1060 O   0  0  0  0  0  0  0  0  0  0  0  0
    8.7195    2.0327   -6.6822 N   0  0  0  0  0  0  0  0  0  0  0  0
    8.3651    1.1261   -6.8300 H   0  0  0  0  0  0  0  0  0  0  0  0
    8.4334    1.4518   -4.3614 C   0  0  0  0  0  0  0  0  0  0  0  0
    9.5771    0.5755   -3.8532 C   0  0  0  0  0  0  0  0  0  0  0  0
    9.6090    0.4904   -2.3256 C   0  0  0  0  0  0  0  0  0  0  0  0
   10.9661    0.0581   -1.7591 C   0  0  0  0  0  0  0  0  0  0  0  0
   11.0861    0.2152   -0.2384 C   0  0  0  0  0  0  0  0  0  0  0  0
   12.3900    0.8995    0.1890 C   0  0  0  0  0  0  0  0  0  0  0  0
   12.7311    1.0923    3.1224 N   0  0  0  0  0  0  0  0  0  0  0  0
   12.2576    2.2038    2.3929 C   0  0  0  0  0  0  0  0  0  0  0  0
   12.1398    3.4239    3.0736 C   0  0  0  0  0  0  0  0  0  0  0  0
   11.7735    4.6055    2.4266 C   0  0  0  0  0  0  0  0  0  0  0  0
   11.5700    4.5395    1.0496 C   0  0  0  0  0  0  0  0  0  0  0  0
   11.2186    5.5348    0.1644 N   0  0  0  0  0  0  0  0  0  0  0  0
   11.1566    5.0371   -1.1078 C   0  0  0  0  0  0  0  0  0  0  0  0
   11.4737    3.6994   -1.0472 C   0  0  0  0  0  0  0  0  0  0  0  0
   11.7325    3.3637    0.3172 C   0  0  0  0  0  0  0  0  0  0  0  0
   12.1103    2.1610    0.9815 C   0  0  0  0  0  0  0  0  0  0  0  0
   12.8238    1.1489    4.1009 H   0  0  0  0  0  0  0  0  0  0  0  0
   12.9689    0.2603    2.6528 H   0  0  0  0  0  0  0  0  0  0  0  0
   11.0379    6.4703    0.4121 H   0  0  0  0  0  0  0  0  0  0  0  0
    9.0764    2.8347   -7.8320 C   0  0  0  0  0  0  0  0  0  0  0  0
    7.8540    3.4661   -8.4986 C   0  0  0  0  0  0  0  0  0  0  0  0
    7.4809    4.8577   -7.9805 C   0  0  0  0  0  0  0  0  0  0  0  0
    6.1509    4.9714   -7.2251 C   0  0  0  0  0  0  0  0  0  0  0  0
    5.1717    3.8201   -7.4791 C   0  0  0  0  0  0  0  0  0  0  0  0
    5.2328    2.7324   -6.4085 C   0  0  0  0  0  0  0  0  0  0  0  0
    5.1864    1.3491   -7.0205 C   0  0  0  0  0  0  0  0  0  0  0  0
    6.0153    0.4791   -6.7785 O   0  0  0  0  0  0  0  0  0  0  0  0
    4.1211    1.1306   -7.8772 N   0  0  0  0  0  0  0  0  0  0  0  0
    3.4277    1.8196   -7.9939 H   0  0  0  0  0  0  0  0  0  0  0  0
    4.0367   -0.1252   -8.6020 C   0  0  0  0  0  0  0  0  0  0  0  0
    2.7112   -0.8476   -8.3649 C   0  0  0  0  0  0  0  0  0  0  0  0
    2.6913   -1.8902   -9.4591 C   0  0  0  0  0  0  0  0  0  0  0  0
    3.3048   -1.1972  -10.6419 N   0  0  0  0  0  0  0  0  0  0  0  0
    4.0460    0.0189  -10.1354 C   0  0  0  0  0  0  0  0  0  0  0  0
    5.4374    0.0616  -10.7381 C   0  0  0  0  0  0  0  0  0  0  0  0
    2.5740   -0.9112  -11.2933 H   0  0  0  0  0  0  0  0  0  0  0  0
    3.9440   -1.8252  -11.1291 H   0  0  0  0  0  0  0  0  0  0  0  0
 11 12  1  0  0  0
 12 13  2  0  0  0
 13 14  1  0  0  0
 14 15  2  0  0  0
 15 16  1  0  0  0
 16 17  1  0  0  0
 17 18  2  0  0  0
 18 19  1  0  0  0
 19 20  2  0  0  0
 20 10  1  0  0  0
 10  9  1  0  0  0
  9  8  1  0  0  0
  8  7  1  0  0  0
  7  6  1  0  0  0
  6  5  1  0  0  0
  5  1  1  0  0  0
  1  2  2  0  0  0
  1  3  1  0  0  0
  3 24  1  0  0  0
 24 25  1  0  0  0
 25 26  1  0  0  0
 26 27  1  0  0  0
 27 28  1  0  0  0
 28 29  1  0  0  0
 29 30  1  0  0  0
 30 31  2  0  0  0
 30 32  1  0  0  0
 34 32  1  0  0  0
 34 35  1  0  0  0
 35 36  1  0  0  0
 36 37  1  0  0  0
 37 38  1  0  0  0
 38 39  1  0  0  0
 20 12  1  0  0  0
 38 34  1  0  0  0
 19 15  1  0  0  0
 11 21  1  0  0  0
 11 22  1  0  0  0
 16 23  1  0  0  0
  3  4  1  0  0  0
 32 33  1  0  0  0
 37 40  1  0  0  0
 37 41  1  0  0  0
M  CHG 1  37   1
M  END
> <minimizedAffinity>
-5.46979

$$$$
reduced_peptide_TRP_ALA_PRO_C4


 41 43  0  0  0  0  0  0  0  0999 V2000
    6.6389    1.9503  -10.1083 C   0  0  0  0  0  0  0  0  0  0  0  0
    7.6883    2.4278  -10.5222 O   0  0  0  0  0  0  0  0  0  0  0  0
    5.5631    2.7157   -9.7075 N   0  0  0  0  0  0  0  0  0  0  0  0
    4.7656    2.2607   -9.3522 H   0  0  0  0  0  0  0  0  0  0  0  0
    6.3860    0.4634   -9.9424 C   0  0  0  0  0  0  0  0  0  0  0  0
    6.8240   -0.3804  -11.1385 C   0  0  0  0  0  0  0  0  0  0  0  0
    6.8854   -1.8727  -10.8052 C   0  0  0  0  0  0  0  0  0  0  0  0
    6.0041   -2.7440  -11.7071 C   0  0  0  0  0  0  0  0  0  0  0  0
    5.2404   -1.9586  -12.7801 C   0  0  0  0  0  0  0  0  0  0  0  0
    3.7200   -2.0123  -12.5891 C   0  0  0  0  0  0  0  0  0  0  0  0
    3.4325    0.8890  -13.0975 N   0  0  0  0  0  0  0  0  0  0  0  0
    3.1703    0.3689  -11.8119 C   0  0  0  0  0  0  0  0  0  0  0  0
    2.6028    1.2339  -10.8656 C   0  0  0  0  0  0  0  0  0  0  0  0
    2.2155    0.7991   -9.5967 C   0  0  0  0  0  0  0  0  0  0  0  0
    2.3724   -0.5563   -9.3139 C   0  0  0  0  0  0  0  0  0  0  0  0
    2.0697   -1.2554   -8.1662 N   0  0  0  0  0  0  0  0  0  0  0  0
    2.3571   -2.5823   -8.3300 C   0  0  0  0  0  0  0  0  0  0  0  0
    2.8526   -2.7466   -9.6032 C   0  0  0  0  0  0  0  0  0  0  0  0
    2.8763   -1.4683  -10.2410 C   0  0  0  0  0  0  0  0  0  0  0  0
    3.2666   -1.0205  -11.5363 C   0  0  0  0  0  0  0  0  0  0  0  0
    3.3583    1.8569  -13.2614 H   0  0  0  0  0  0  0  0  0  0  0  0
    3.6895    0.2839  -13.8303 H   0  0  0  0  0  0  0  0  0  0  0  0
    1.6994   -0.8569   -7.3456 H   0  0  0  0  0  0  0  0  0  0  0  0
    5.5603    4.1601   -9.7884 C   0  0  0  0  0  0  0  0  0  0  0  0
    5.3284    4.8150   -8.4266 C   0  0  0  0  0  0  0  0  0  0  0  0
    6.0630    4.1541   -7.2571 C   0  0  0  0  0  0  0  0  0  0  0  0
    5.1928    3.4080   -6.2379 C   0  0  0  0  0  0  0  0  0  0  0  0
    5.2295    1.8810   -6.3632 C   0  0  0  0  0  0  0  0  0  0  0  0
    6.6451    1.3088   -6.3240 C   0  0  0  0  0  0  0  0  0  0  0  0
    7.1161    1.0919   -4.9023 C   0  0  0  0  0  0  0  0  0  0  0  0
    6.3664    0.7684   -3.9881 O   0  0  0  0  0  0  0  0  0  0  0  0
    8.4740    1.2782   -4.7076 N   0  0  0  0  0  0  0  0  0  0  0  0
    9.0653    1.4619   -5.4730 H   0  0  0  0  0  0  0  0  0  0  0  0
    9.0175    1.1999   -3.3630 C   0  0  0  0  0  0  0  0  0  0  0  0
    9.5483   -0.1934   -3.0285 C   0  0  0  0  0  0  0  0  0  0  0  0
   10.3681    0.0450   -1.7813 C   0  0  0  0  0  0  0  0  0  0  0  0
   11.0156    1.3801   -2.0135 N   0  0  0  0  0  0  0  0  0  0  0  0
   10.2616    2.0758   -3.1235 C   0  0  0  0  0  0  0  0  0  0  0  0
    9.9381    3.4996   -2.7122 C   0  0  0  0  0  0  0  0  0  0  0  0
   11.9901    1.2500   -2.2851 H   0  0  0  0  0  0  0  0  0  0  0  0
   10.9898    1.9402   -1.1614 H   0  0  0  0  0  0  0  0  0  0  0  0
 11 12  1  0  0  0
 12 13  2  0  0  0
 13 14  1  0  0  0
 14 15  2  0  0  0
 15 16  1  0  0  0
 16 17  1  0  0  0
 17 18  2  0  0  0
 18 19  1  0  0  0
 19 20  2  0  0  0
 20 10  1  0  0  0
 10  9  1  0  0  0
  9  8  1  0  0  0
  8  7  1  0  0  0
  7  6  1  0  0  0
  6  5  1  0  0  0
  5  1  1  0  0  0
  1  2  2  0  0  0
  1  3  1  0  0  0
  3 24  1  0  0  0
 24 25  1  0  0  0
 25 26  1  0  0  0
 26 27  1  0  0  0
 27 28  1  0  0  0
 28 29  1  0  0  0
 29 30  1  0  0  0
 30 31  2  0  0  0
 30 32  1  0  0  0
 34 32  1  0  0  0
 34 35  1  0  0  0
 35 36  1  0  0  0
 36 37  1  0  0  0
 37 38  1  0  0  0
 38 39  1  0  0  0
 20 12  1  0  0  0
 38 34  1  0  0  0
 19 15  1  0  0  0
 11 21  1  0  0  0
 11 22  1  0  0  0
 16 23  1  0  0  0
  3  4  1  0  0  0
 32 33  1  0  0  0
 37 40  1  0  0  0
 37 41  1  0  0  0
M  CHG 1  37   1
M  END
> <minimizedAffinity>
-5.46240

$$$$
reduced_peptide_TRP_ALA_PRO_C4


 41 43  0  0  0  0  0  0  0  0999 V2000
    3.7605    2.4857  -11.3104 C   0  0  0  0  0  0  0  0  0  0  0  0
    2.7198    2.0984  -10.7933 O   0  0  0  0  0  0  0  0  0  0  0  0
    4.7123    3.2250  -10.6384 N   0  0  0  0  0  0  0  0  0  0  0  0
    5.5076    3.5312  -11.1314 H   0  0  0  0  0  0  0  0  0  0  0  0
    4.1329    2.2434  -12.7612 C   0  0  0  0  0  0  0  0  0  0  0  0
    4.5145    0.7973  -13.0734 C   0  0  0  0  0  0  0  0  0  0  0  0
    3.3201   -0.0264  -13.5600 C   0  0  0  0  0  0  0  0  0  0  0  0
    3.2398   -1.4252  -12.9384 C   0  0  0  0  0  0  0  0  0  0  0  0
    4.5660   -2.1947  -12.9598 C   0  0  0  0  0  0  0  0  0  0  0  0
    4.8750   -2.8870  -11.6271 C   0  0  0  0  0  0  0  0  0  0  0  0
    6.7631   -0.7588  -10.8120 N   0  0  0  0  0  0  0  0  0  0  0  0
    5.5743   -0.9655  -10.0797 C   0  0  0  0  0  0  0  0  0  0  0  0
    5.2477   -0.0233   -9.0941 C   0  0  0  0  0  0  0  0  0  0  0  0
    4.0503   -0.0787   -8.3783 C   0  0  0  0  0  0  0  0  0  0  0  0
    3.1552   -1.0925   -8.7143 C   0  0  0  0  0  0  0  0  0  0  0  0
    1.9130   -1.3772   -8.1912 N   0  0  0  0  0  0  0  0  0  0  0  0
    1.3607   -2.4478   -8.8381 C   0  0  0  0  0  0  0  0  0  0  0  0
    2.2572   -2.8632   -9.7958 C   0  0  0  0  0  0  0  0  0  0  0  0
    3.4069   -2.0178   -9.7270 C   0  0  0  0  0  0  0  0  0  0  0  0
    4.6288   -1.9548  -10.4575 C   0  0  0  0  0  0  0  0  0  0  0  0
    7.4019   -0.0656  -10.5280 H   0  0  0  0  0  0  0  0  0  0  0  0
    6.9534   -1.3079  -11.6067 H   0  0  0  0  0  0  0  0  0  0  0  0
    1.4844   -0.8809   -7.4569 H   0  0  0  0  0  0  0  0  0  0  0  0
    4.5883    3.5680   -9.2386 C   0  0  0  0  0  0  0  0  0  0  0  0
    5.7532    4.4284   -8.7487 C   0  0  0  0  0  0  0  0  0  0  0  0
    6.0521    4.3209   -7.2509 C   0  0  0  0  0  0  0  0  0  0  0  0
    5.0422    3.5325   -6.4077 C   0  0  0  0  0  0  0  0  0  0  0  0
    5.4342    2.0754   -6.1387 C   0  0  0  0  0  0  0  0  0  0  0  0
    6.4974    1.9303   -5.0518 C   0  0  0  0  0  0  0  0  0  0  0  0
    7.8134    1.4503   -5.6242 C   0  0  0  0  0  0  0  0  0  0  0  0
    8.9034    1.8426   -5.2236 O   0  0  0  0  0  0  0  0  0  0  0  0
    7.6967    0.5167   -6.6397 N   0  0  0  0  0  0  0  0  0  0  0  0
    6.8131    0.1615   -6.8894 H   0  0  0  0  0  0  0  0  0  0  0  0
    8.8909    0.0666   -7.3333 C   0  0  0  0  0  0  0  0  0  0  0  0
    8.7826   -1.3846   -7.7995 C   0  0  0  0  0  0  0  0  0  0  0  0
    9.9276   -1.5142   -8.7776 C   0  0  0  0  0  0  0  0  0  0  0  0
    9.9608   -0.1905   -9.4862 N   0  0  0  0  0  0  0  0  0  0  0  0
    9.1778    0.8010   -8.6564 C   0  0  0  0  0  0  0  0  0  0  0  0
    9.9799    2.0773   -8.4869 C   0  0  0  0  0  0  0  0  0  0  0  0
    9.5367   -0.2809  -10.4094 H   0  0  0  0  0  0  0  0  0  0  0  0
   10.9235    0.1259   -9.6027 H   0  0  0  0  0  0  0  0  0  0  0  0
 11 12  1  0  0  0
 12 13  2  0  0  0
 13 14  1  0  0  0
 14 15  2  0  0  0
 15 16  1  0  0  0
 16 17  1  0  0  0
 17 18  2  0  0  0
 18 19  1  0  0  0
 19 20  2  0  0  0
 20 10  1  0  0  0
 10  9  1  0  0  0
  9  8  1  0  0  0
  8  7  1  0  0  0
  7  6  1  0  0  0
  6  5  1  0  0  0
  5  1  1  0  0  0
  1  2  2  0  0  0
  1  3  1  0  0  0
  3 24  1  0  0  0
 24 25  1  0  0  0
 25 26  1  0  0  0
 26 27  1  0  0  0
 27 28  1  0  0  0
 28 29  1  0  0  0
 29 30  1  0  0  0
 30 31  2  0  0  0
 30 32  1  0  0  0
 34 32  1  0  0  0
 34 35  1  0  0  0
 35 36  1  0  0  0
 36 37  1  0  0  0
 37 38  1  0  0  0
 38 39  1  0  0  0
 20 12  1  0  0  0
 38 34  1  0  0  0
 19 15  1  0  0  0
 11 21  1  0  0  0
 11 22  1  0  0  0
 16 23  1  0  0  0
  3  4  1  0  0  0
 32 33  1  0  0  0
 37 40  1  0  0  0
 37 41  1  0  0  0
M  CHG 1  37   1
M  END
> <minimizedAffinity>
-5.45279

$$$$
