bridge_LYS46_TYR49_carboxylic_acid_amide_lnk_naphthalene


 21 22  0  0  0  0  0  0  0  0999 V2000
    4.6865   -0.0622   -9.2075 C   0  0  0  0  0  0  0  0  0  0  0  0
    3.5338   -1.0308   -9.3466 C   0  0  0  0  0  0  0  0  0  0  0  0
    3.3398   -1.7319  -10.5411 C   0  0  0  0  0  0  0  0  0  0  0  0
    2.2610   -2.6076  -10.6806 C   0  0  0  0  0  0  0  0  0  0  0  0
    1.3523   -2.8003   -9.6293 C   0  0  0  0  0  0  0  0  0  0  0  0
    0.2619   -3.6763   -9.7553 C   0  0  0  0  0  0  0  0  0  0  0  0
   -0.6331   -3.8576   -8.6998 C   0  0  0  0  0  0  0  0  0  0  0  0
   -0.4492   -3.1668   -7.5059 C   0  0  0  0  0  0  0  0  0  0  0  0
    0.6301   -2.2929   -7.3646 C   0  0  0  0  0  0  0  0  0  0  0  0
    1.5395   -2.0985   -8.4171 C   0  0  0  0  0  0  0  0  0  0  0  0
    2.6305   -1.2218   -8.2908 C   0  0  0  0  0  0  0  0  0  0  0  0
    4.2369    1.3308   -8.7518 C   0  0  0  0  0  0  0  0  0  0  0  0
    5.8135    2.2363   -7.0799 C   0  0  0  0  0  0  0  0  0  0  0  0
    6.6564    2.5123   -7.9291 O   0  0  0  0  0  0  0  0  0  0  0  0
    4.6141    1.6280   -7.3810 N   0  0  0  0  0  0  0  0  0  0  0  0
    3.9990    1.3894   -6.6503 H   0  0  0  0  0  0  0  0  0  0  0  0
    6.0022    2.5684   -5.6250 C   0  0  0  0  0  0  0  0  0  0  0  0
    7.0523    1.4858   -3.7088 O   0  0  0  0  0  0  0  0  0  0  0  0
    6.6511    1.4612   -4.8594 C   0  0  0  0  0  0  0  0  0  0  0  0
    6.8558    0.3660   -5.6226 O   0  0  0  0  0  0  0  0  0  0  0  0
    6.5474    0.3471   -6.5072 H   0  0  0  0  0  0  0  0  0  0  0  0
 18 19  2  0  0  0
 19 20  1  0  0  0
 19 17  1  0  0  0
 17 13  1  0  0  0
 13 14  2  0  0  0
 13 15  1  0  0  0
 15 12  1  0  0  0
 12  1  1  0  0  0
  1  2  1  0  0  0
  2  3  2  0  0  0
  3  4  1  0  0  0
  4  5  2  0  0  0
  5  6  1  0  0  0
  6  7  2  0  0  0
  7  8  1  0  0  0
  8  9  2  0  0  0
  9 10  1  0  0  0
 10 11  2  0  0  0
 11  2  1  0  0  0
 10  5  1  0  0  0
 20 21  1  0  0  0
 15 16  1  0  0  0
M  END
> <minimizedAffinity>
-6.96976

$$$$
bridge_LYS46_TYR49_carboxylic_acid_amide_lnk_naphthalene


 21 22  0  0  0  0  0  0  0  0999 V2000
    4.6509    0.2025   -9.2876 C   0  0  0  0  0  0  0  0  0  0  0  0
    3.5426   -0.8167   -9.4249 C   0  0  0  0  0  0  0  0  0  0  0  0
    3.3682   -1.5141  -10.6246 C   0  0  0  0  0  0  0  0  0  0  0  0
    2.3294   -2.4371  -10.7621 C   0  0  0  0  0  0  0  0  0  0  0  0
    1.4418   -2.6820   -9.7036 C   0  0  0  0  0  0  0  0  0  0  0  0
    0.3915   -3.6060   -9.8276 C   0  0  0  0  0  0  0  0  0  0  0  0
   -0.4828   -3.8389   -8.7649 C   0  0  0  0  0  0  0  0  0  0  0  0
   -0.3180   -3.1522   -7.5657 C   0  0  0  0  0  0  0  0  0  0  0  0
    0.7214   -2.2310   -7.4265 C   0  0  0  0  0  0  0  0  0  0  0  0
    1.6095   -1.9844   -8.4862 C   0  0  0  0  0  0  0  0  0  0  0  0
    2.6604   -1.0597   -8.3619 C   0  0  0  0  0  0  0  0  0  0  0  0
    4.9655    0.5410   -7.8259 C   0  0  0  0  0  0  0  0  0  0  0  0
    5.1969    2.5138   -6.3578 C   0  0  0  0  0  0  0  0  0  0  0  0
    5.8821    1.9058   -5.5403 O   0  0  0  0  0  0  0  0  0  0  0  0
    4.6763    1.9241   -7.4894 N   0  0  0  0  0  0  0  0  0  0  0  0
    4.0952    2.4523   -8.0831 H   0  0  0  0  0  0  0  0  0  0  0  0
    4.8868    3.9786   -6.2129 C   0  0  0  0  0  0  0  0  0  0  0  0
    6.4622    5.6694   -6.9914 O   0  0  0  0  0  0  0  0  0  0  0  0
    5.6120    4.8237   -7.2094 C   0  0  0  0  0  0  0  0  0  0  0  0
    5.1608    4.6283   -8.4672 O   0  0  0  0  0  0  0  0  0  0  0  0
    4.5072    3.9782   -8.6348 H   0  0  0  0  0  0  0  0  0  0  0  0
 18 19  2  0  0  0
 19 20  1  0  0  0
 19 17  1  0  0  0
 17 13  1  0  0  0
 13 14  2  0  0  0
 13 15  1  0  0  0
 15 12  1  0  0  0
 12  1  1  0  0  0
  1  2  1  0  0  0
  2  3  2  0  0  0
  3  4  1  0  0  0
  4  5  2  0  0  0
  5  6  1  0  0  0
  6  7  2  0  0  0
  7  8  1  0  0  0
  8  9  2  0  0  0
  9 10  1  0  0  0
 10 11  2  0  0  0
 11  2  1  0  0  0
 10  5  1  0  0  0
 20 21  1  0  0  0
 15 16  1  0  0  0
M  END
> <minimizedAffinity>
-6.92748

$$$$
bridge_LYS46_TYR49_carboxylic_acid_amide_lnk_naphthalene


 21 22  0  0  0  0  0  0  0  0999 V2000
    4.8198   -0.0008   -9.4391 C   0  0  0  0  0  0  0  0  0  0  0  0
    3.6599   -0.9670   -9.5258 C   0  0  0  0  0  0  0  0  0  0  0  0
    3.4151   -1.6733  -10.7078 C   0  0  0  0  0  0  0  0  0  0  0  0
    2.3293   -2.5467  -10.7984 C   0  0  0  0  0  0  0  0  0  0  0  0
    1.4642   -2.7319   -9.7096 C   0  0  0  0  0  0  0  0  0  0  0  0
    0.3673   -3.6056   -9.7863 C   0  0  0  0  0  0  0  0  0  0  0  0
   -0.4838   -3.7795   -8.6939 C   0  0  0  0  0  0  0  0  0  0  0  0
   -0.2491   -3.0834   -7.5119 C   0  0  0  0  0  0  0  0  0  0  0  0
    0.8373   -2.2118   -7.4196 C   0  0  0  0  0  0  0  0  0  0  0  0
    1.7030   -2.0249   -8.5096 C   0  0  0  0  0  0  0  0  0  0  0  0
    2.8005   -1.1505   -8.4326 C   0  0  0  0  0  0  0  0  0  0  0  0
    5.0388    0.5345   -8.0194 C   0  0  0  0  0  0  0  0  0  0  0  0
    6.8507    0.9182   -6.3850 C   0  0  0  0  0  0  0  0  0  0  0  0
    6.0658    1.0684   -5.4528 O   0  0  0  0  0  0  0  0  0  0  0  0
    6.4433    0.6855   -7.6808 N   0  0  0  0  0  0  0  0  0  0  0  0
    7.1196    0.6201   -8.3933 H   0  0  0  0  0  0  0  0  0  0  0  0
    8.3419    0.9437   -6.1898 C   0  0  0  0  0  0  0  0  0  0  0  0
    9.3627    0.2156   -8.2814 O   0  0  0  0  0  0  0  0  0  0  0  0
    9.0615    0.0186   -7.1169 C   0  0  0  0  0  0  0  0  0  0  0  0
    9.2997   -1.1848   -6.5521 O   0  0  0  0  0  0  0  0  0  0  0  0
    9.0682   -1.3362   -5.6569 H   0  0  0  0  0  0  0  0  0  0  0  0
 18 19  2  0  0  0
 19 20  1  0  0  0
 19 17  1  0  0  0
 17 13  1  0  0  0
 13 14  2  0  0  0
 13 15  1  0  0  0
 15 12  1  0  0  0
 12  1  1  0  0  0
  1  2  1  0  0  0
  2  3  2  0  0  0
  3  4  1  0  0  0
  4  5  2  0  0  0
  5  6  1  0  0  0
  6  7  2  0  0  0
  7  8  1  0  0  0
  8  9  2  0  0  0
  9 10  1  0  0  0
 10 11  2  0  0  0
 11  2  1  0  0  0
 10  5  1  0  0  0
 20 21  1  0  0  0
 15 16  1  0  0  0
M  END
> <minimizedAffinity>
-6.61697

$$$$
bridge_LYS46_TYR49_carboxylic_acid_amide_lnk_naphthalene


 21 22  0  0  0  0  0  0  0  0999 V2000
    4.6366    0.2736   -8.7229 C   0  0  0  0  0  0  0  0  0  0  0  0
    3.5944   -0.7675   -9.0637 C   0  0  0  0  0  0  0  0  0  0  0  0
    3.6184   -1.4120  -10.3047 C   0  0  0  0  0  0  0  0  0  0  0  0
    2.6417   -2.3551  -10.6314 C   0  0  0  0  0  0  0  0  0  0  0  0
    1.6193   -2.6733   -9.7249 C   0  0  0  0  0  0  0  0  0  0  0  0
    0.6294   -3.6183  -10.0400 C   0  0  0  0  0  0  0  0  0  0  0  0
   -0.3809   -3.9243   -9.1270 C   0  0  0  0  0  0  0  0  0  0  0  0
   -0.4141   -3.2907   -7.8884 C   0  0  0  0  0  0  0  0  0  0  0  0
    0.5630   -2.3495   -7.5599 C   0  0  0  0  0  0  0  0  0  0  0  0
    1.5861   -2.0295   -8.4674 C   0  0  0  0  0  0  0  0  0  0  0  0
    2.5765   -1.0838   -8.1519 C   0  0  0  0  0  0  0  0  0  0  0  0
    5.8457    0.2305   -9.6644 C   0  0  0  0  0  0  0  0  0  0  0  0
    7.5810   -1.5268   -9.7093 C   0  0  0  0  0  0  0  0  0  0  0  0
    7.1515   -2.0148  -10.7510 O   0  0  0  0  0  0  0  0  0  0  0  0
    6.9914   -0.4489   -9.0849 N   0  0  0  0  0  0  0  0  0  0  0  0
    7.3551   -0.1321   -8.2267 H   0  0  0  0  0  0  0  0  0  0  0  0
    8.8190   -2.0463   -9.0310 C   0  0  0  0  0  0  0  0  0  0  0  0
   10.1155   -0.1138   -8.3022 O   0  0  0  0  0  0  0  0  0  0  0  0
    9.3986   -1.0693   -8.0601 C   0  0  0  0  0  0  0  0  0  0  0  0
    9.1183   -1.3961   -6.7801 O   0  0  0  0  0  0  0  0  0  0  0  0
    8.5671   -2.1307   -6.5940 H   0  0  0  0  0  0  0  0  0  0  0  0
 18 19  2  0  0  0
 19 20  1  0  0  0
 19 17  1  0  0  0
 17 13  1  0  0  0
 13 14  2  0  0  0
 13 15  1  0  0  0
 15 12  1  0  0  0
 12  1  1  0  0  0
  1  2  1  0  0  0
  2  3  2  0  0  0
  3  4  1  0  0  0
  4  5  2  0  0  0
  5  6  1  0  0  0
  6  7  2  0  0  0
  7  8  1  0  0  0
  8  9  2  0  0  0
  9 10  1  0  0  0
 10 11  2  0  0  0
 11  2  1  0  0  0
 10  5  1  0  0  0
 20 21  1  0  0  0
 15 16  1  0  0  0
M  END
> <minimizedAffinity>
-6.57207

$$$$
bridge_LYS46_TYR49_carboxylic_acid_amide_lnk_naphthalene


 21 22  0  0  0  0  0  0  0  0999 V2000
    2.4629    0.4489   -9.9323 C   0  0  0  0  0  0  0  0  0  0  0  0
    3.8344    0.4096   -9.2969 C   0  0  0  0  0  0  0  0  0  0  0  0
    4.8599   -0.3457   -9.8747 C   0  0  0  0  0  0  0  0  0  0  0  0
    6.1199   -0.4039   -9.2755 C   0  0  0  0  0  0  0  0  0  0  0  0
    6.3814    0.2908   -8.0850 C   0  0  0  0  0  0  0  0  0  0  0  0
    7.6430    0.2405   -7.4699 C   0  0  0  0  0  0  0  0  0  0  0  0
    7.8875    0.9379   -6.2859 C   0  0  0  0  0  0  0  0  0  0  0  0
    6.8754    1.6942   -5.7027 C   0  0  0  0  0  0  0  0  0  0  0  0
    5.6162    1.7548   -6.3021 C   0  0  0  0  0  0  0  0  0  0  0  0
    5.3532    1.0586   -7.4932 C   0  0  0  0  0  0  0  0  0  0  0  0
    4.0908    1.1090   -8.1084 C   0  0  0  0  0  0  0  0  0  0  0  0
    1.9930   -0.9297  -10.4109 C   0  0  0  0  0  0  0  0  0  0  0  0
    0.8209   -2.9333   -9.5668 C   0  0  0  0  0  0  0  0  0  0  0  0
    0.4723   -3.2825  -10.6912 O   0  0  0  0  0  0  0  0  0  0  0  0
    1.5388   -1.7819   -9.3258 N   0  0  0  0  0  0  0  0  0  0  0  0
    1.7486   -1.5313   -8.3972 H   0  0  0  0  0  0  0  0  0  0  0  0
    0.5201   -3.7544   -8.3428 C   0  0  0  0  0  0  0  0  0  0  0  0
   -1.5202   -2.8519   -7.3583 O   0  0  0  0  0  0  0  0  0  0  0  0
   -0.3129   -3.0182   -7.3441 C   0  0  0  0  0  0  0  0  0  0  0  0
    0.4389   -2.4285   -6.3897 O   0  0  0  0  0  0  0  0  0  0  0  0
    1.3671   -2.5564   -6.3789 H   0  0  0  0  0  0  0  0  0  0  0  0
 18 19  2  0  0  0
 19 20  1  0  0  0
 19 17  1  0  0  0
 17 13  1  0  0  0
 13 14  2  0  0  0
 13 15  1  0  0  0
 15 12  1  0  0  0
 12  1  1  0  0  0
  1  2  1  0  0  0
  2  3  2  0  0  0
  3  4  1  0  0  0
  4  5  2  0  0  0
  5  6  1  0  0  0
  6  7  2  0  0  0
  7  8  1  0  0  0
  8  9  2  0  0  0
  9 10  1  0  0  0
 10 11  2  0  0  0
 11  2  1  0  0  0
 10  5  1  0  0  0
 20 21  1  0  0  0
 15 16  1  0  0  0
M  END
> <minimizedAffinity>
-5.91872

$$$$
bridge_LYS46_TYR49_carboxylic_acid_amide_lnk_naphthalene


 21 22  0  0  0  0  0  0  0  0999 V2000
    4.5999   -1.4706  -10.6071 C   0  0  0  0  0  0  0  0  0  0  0  0
    4.5719   -0.1120   -9.9441 C   0  0  0  0  0  0  0  0  0  0  0  0
    4.1151    1.0080  -10.6463 C   0  0  0  0  0  0  0  0  0  0  0  0
    4.1125    2.2681  -10.0445 C   0  0  0  0  0  0  0  0  0  0  0  0
    4.5676    2.4359   -8.7282 C   0  0  0  0  0  0  0  0  0  0  0  0
    4.5724    3.6971   -8.1103 C   0  0  0  0  0  0  0  0  0  0  0  0
    5.0279    3.8474   -6.7995 C   0  0  0  0  0  0  0  0  0  0  0  0
    5.4831    2.7400   -6.0903 C   0  0  0  0  0  0  0  0  0  0  0  0
    5.4840    1.4796   -6.6902 C   0  0  0  0  0  0  0  0  0  0  0  0
    5.0298    1.3110   -8.0084 C   0  0  0  0  0  0  0  0  0  0  0  0
    5.0250    0.0490   -8.6265 C   0  0  0  0  0  0  0  0  0  0  0  0
    3.2079   -1.9482  -11.0364 C   0  0  0  0  0  0  0  0  0  0  0  0
    1.1496   -2.9462  -10.1046 C   0  0  0  0  0  0  0  0  0  0  0  0
    0.4914   -2.6846  -11.1076 O   0  0  0  0  0  0  0  0  0  0  0  0
    2.4755   -2.5980   -9.9634 N   0  0  0  0  0  0  0  0  0  0  0  0
    2.9368   -2.7941   -9.1161 H   0  0  0  0  0  0  0  0  0  0  0  0
    0.5716   -3.7048   -8.9413 C   0  0  0  0  0  0  0  0  0  0  0  0
   -0.1907   -2.3937   -7.0317 O   0  0  0  0  0  0  0  0  0  0  0  0
    0.6925   -2.9620   -7.6502 C   0  0  0  0  0  0  0  0  0  0  0  0
    1.9717   -2.8859   -7.2242 O   0  0  0  0  0  0  0  0  0  0  0  0
    2.6506   -3.3228   -7.6998 H   0  0  0  0  0  0  0  0  0  0  0  0
 18 19  2  0  0  0
 19 20  1  0  0  0
 19 17  1  0  0  0
 17 13  1  0  0  0
 13 14  2  0  0  0
 13 15  1  0  0  0
 15 12  1  0  0  0
 12  1  1  0  0  0
  1  2  1  0  0  0
  2  3  2  0  0  0
  3  4  1  0  0  0
  4  5  2  0  0  0
  5  6  1  0  0  0
  6  7  2  0  0  0
  7  8  1  0  0  0
  8  9  2  0  0  0
  9 10  1  0  0  0
 10 11  2  0  0  0
 11  2  1  0  0  0
 10  5  1  0  0  0
 20 21  1  0  0  0
 15 16  1  0  0  0
M  END
> <minimizedAffinity>
-5.88135

$$$$
bridge_LYS46_TYR49_carboxylic_acid_amide_lnk_naphthalene


 21 22  0  0  0  0  0  0  0  0999 V2000
    4.9825   -1.9290  -10.8663 C   0  0  0  0  0  0  0  0  0  0  0  0
    3.7703   -1.9506   -9.9629 C   0  0  0  0  0  0  0  0  0  0  0  0
    3.6326   -1.0051   -8.9417 C   0  0  0  0  0  0  0  0  0  0  0  0
    2.5265   -1.0391   -8.0900 C   0  0  0  0  0  0  0  0  0  0  0  0
    1.5348   -2.0199   -8.2401 C   0  0  0  0  0  0  0  0  0  0  0  0
    0.4177   -2.0678   -7.3903 C   0  0  0  0  0  0  0  0  0  0  0  0
   -0.5608   -3.0496   -7.5532 C   0  0  0  0  0  0  0  0  0  0  0  0
   -0.4355   -3.9947   -8.5669 C   0  0  0  0  0  0  0  0  0  0  0  0
    0.6686   -3.9602   -9.4203 C   0  0  0  0  0  0  0  0  0  0  0  0
    1.6625   -2.9794   -9.2697 C   0  0  0  0  0  0  0  0  0  0  0  0
    2.7803   -2.9318  -10.1201 C   0  0  0  0  0  0  0  0  0  0  0  0
    4.7264   -1.1854  -12.1822 C   0  0  0  0  0  0  0  0  0  0  0  0
    2.9234   -0.9596  -13.8552 C   0  0  0  0  0  0  0  0  0  0  0  0
    3.1868    0.2193  -14.0752 O   0  0  0  0  0  0  0  0  0  0  0  0
    3.5986   -1.7201  -12.9253 N   0  0  0  0  0  0  0  0  0  0  0  0
    3.3101   -2.6469  -12.7608 H   0  0  0  0  0  0  0  0  0  0  0  0
    1.8506   -1.6959  -14.6100 C   0  0  0  0  0  0  0  0  0  0  0  0
    0.4866   -1.8447  -12.5941 O   0  0  0  0  0  0  0  0  0  0  0  0
    0.7733   -2.2211  -13.7174 C   0  0  0  0  0  0  0  0  0  0  0  0
    0.1420   -3.2875  -14.2540 O   0  0  0  0  0  0  0  0  0  0  0  0
    0.3625   -3.5768  -15.1175 H   0  0  0  0  0  0  0  0  0  0  0  0
 18 19  2  0  0  0
 19 20  1  0  0  0
 19 17  1  0  0  0
 17 13  1  0  0  0
 13 14  2  0  0  0
 13 15  1  0  0  0
 15 12  1  0  0  0
 12  1  1  0  0  0
  1  2  1  0  0  0
  2  3  2  0  0  0
  3  4  1  0  0  0
  4  5  2  0  0  0
  5  6  1  0  0  0
  6  7  2  0  0  0
  7  8  1  0  0  0
  8  9  2  0  0  0
  9 10  1  0  0  0
 10 11  2  0  0  0
 11  2  1  0  0  0
 10  5  1  0  0  0
 20 21  1  0  0  0
 15 16  1  0  0  0
M  END
> <minimizedAffinity>
-5.88122

$$$$
bridge_LYS46_TYR49_carboxylic_acid_amide_lnk_naphthalene


 21 22  0  0  0  0  0  0  0  0999 V2000
    4.8049   -1.6677  -11.1674 C   0  0  0  0  0  0  0  0  0  0  0  0
    3.6580   -1.7800  -10.1885 C   0  0  0  0  0  0  0  0  0  0  0  0
    3.6130   -0.9613   -9.0554 C   0  0  0  0  0  0  0  0  0  0  0  0
    2.5682   -1.0811   -8.1367 C   0  0  0  0  0  0  0  0  0  0  0  0
    1.5466   -2.0229   -8.3303 C   0  0  0  0  0  0  0  0  0  0  0  0
    0.4903   -2.1560   -7.4143 C   0  0  0  0  0  0  0  0  0  0  0  0
   -0.5191   -3.0974   -7.6215 C   0  0  0  0  0  0  0  0  0  0  0  0
   -0.4858   -3.9163   -8.7462 C   0  0  0  0  0  0  0  0  0  0  0  0
    0.5569   -3.7958   -9.6664 C   0  0  0  0  0  0  0  0  0  0  0  0
    1.5808   -2.8542   -9.4725 C   0  0  0  0  0  0  0  0  0  0  0  0
    2.6376   -2.7211  -10.3892 C   0  0  0  0  0  0  0  0  0  0  0  0
    4.3931   -1.0059  -12.4875 C   0  0  0  0  0  0  0  0  0  0  0  0
    5.0422   -2.7001  -14.1636 C   0  0  0  0  0  0  0  0  0  0  0  0
    6.2411   -2.5524  -13.9436 O   0  0  0  0  0  0  0  0  0  0  0  0
    4.0648   -1.9675  -13.5255 N   0  0  0  0  0  0  0  0  0  0  0  0
    3.1226   -2.0989  -13.7789 H   0  0  0  0  0  0  0  0  0  0  0  0
    4.5255   -3.7253  -15.1357 C   0  0  0  0  0  0  0  0  0  0  0  0
    3.0478   -2.4503  -16.5977 O   0  0  0  0  0  0  0  0  0  0  0  0
    3.2320   -3.3225  -15.7665 C   0  0  0  0  0  0  0  0  0  0  0  0
    2.1811   -3.9912  -15.2450 O   0  0  0  0  0  0  0  0  0  0  0  0
    2.3228   -4.6617  -14.6060 H   0  0  0  0  0  0  0  0  0  0  0  0
 18 19  2  0  0  0
 19 20  1  0  0  0
 19 17  1  0  0  0
 17 13  1  0  0  0
 13 14  2  0  0  0
 13 15  1  0  0  0
 15 12  1  0  0  0
 12  1  1  0  0  0
  1  2  1  0  0  0
  2  3  2  0  0  0
  3  4  1  0  0  0
  4  5  2  0  0  0
  5  6  1  0  0  0
  6  7  2  0  0  0
  7  8  1  0  0  0
  8  9  2  0  0  0
  9 10  1  0  0  0
 10 11  2  0  0  0
 11  2  1  0  0  0
 10  5  1  0  0  0
 20 21  1  0  0  0
 15 16  1  0  0  0
M  END
> <minimizedAffinity>
-5.82981

$$$$
bridge_LYS46_TYR49_carboxylic_acid_amide_lnk_naphthalene


 21 22  0  0  0  0  0  0  0  0999 V2000
    4.3219   -1.2319  -11.8978 C   0  0  0  0  0  0  0  0  0  0  0  0
    3.3896   -1.4934  -10.7365 C   0  0  0  0  0  0  0  0  0  0  0  0
    3.6013   -0.8657   -9.5048 C   0  0  0  0  0  0  0  0  0  0  0  0
    2.7567   -1.1256   -8.4236 C   0  0  0  0  0  0  0  0  0  0  0  0
    1.6829   -2.0195   -8.5501 C   0  0  0  0  0  0  0  0  0  0  0  0
    0.8260   -2.2921   -7.4713 C   0  0  0  0  0  0  0  0  0  0  0  0
   -0.2384   -3.1836   -7.6134 C   0  0  0  0  0  0  0  0  0  0  0  0
   -0.4600   -3.8128   -8.8347 C   0  0  0  0  0  0  0  0  0  0  0  0
    0.3824   -3.5520   -9.9168 C   0  0  0  0  0  0  0  0  0  0  0  0
    1.4584   -2.6582   -9.7905 C   0  0  0  0  0  0  0  0  0  0  0  0
    2.3157   -2.3857  -10.8701 C   0  0  0  0  0  0  0  0  0  0  0  0
    5.2655   -2.4078  -12.1753 C   0  0  0  0  0  0  0  0  0  0  0  0
    7.7003   -2.2715  -11.7829 C   0  0  0  0  0  0  0  0  0  0  0  0
    7.9526   -2.1644  -12.9798 O   0  0  0  0  0  0  0  0  0  0  0  0
    6.4208   -2.4275  -11.2952 N   0  0  0  0  0  0  0  0  0  0  0  0
    6.2868   -2.5551  -10.3282 H   0  0  0  0  0  0  0  0  0  0  0  0
    8.7717   -2.2103  -10.7289 C   0  0  0  0  0  0  0  0  0  0  0  0
    9.2816    0.0104   -9.8598 O   0  0  0  0  0  0  0  0  0  0  0  0
    8.6338   -1.0216   -9.8337 C   0  0  0  0  0  0  0  0  0  0  0  0
    7.7218   -1.2220   -8.8580 O   0  0  0  0  0  0  0  0  0  0  0  0
    7.2238   -2.0154   -8.8380 H   0  0  0  0  0  0  0  0  0  0  0  0
 18 19  2  0  0  0
 19 20  1  0  0  0
 19 17  1  0  0  0
 17 13  1  0  0  0
 13 14  2  0  0  0
 13 15  1  0  0  0
 15 12  1  0  0  0
 12  1  1  0  0  0
  1  2  1  0  0  0
  2  3  2  0  0  0
  3  4  1  0  0  0
  4  5  2  0  0  0
  5  6  1  0  0  0
  6  7  2  0  0  0
  7  8  1  0  0  0
  8  9  2  0  0  0
  9 10  1  0  0  0
 10 11  2  0  0  0
 11  2  1  0  0  0
 10  5  1  0  0  0
 20 21  1  0  0  0
 15 16  1  0  0  0
M  END
> <minimizedAffinity>
-5.78712

$$$$
