bridge_LYS46_TYR49_sulfonamide_ether3_naphthalene


 20 21  0  0  0  0  0  0  0  0999 V2000
    4.8454   -0.0940   -9.1857 C   0  0  0  0  0  0  0  0  0  0  0  0
    3.6550   -1.0083   -9.3646 C   0  0  0  0  0  0  0  0  0  0  0  0
    3.4704   -1.7048  -10.5630 C   0  0  0  0  0  0  0  0  0  0  0  0
    2.3811   -2.5638  -10.7231 C   0  0  0  0  0  0  0  0  0  0  0  0
    1.4541   -2.7482   -9.6865 C   0  0  0  0  0  0  0  0  0  0  0  0
    0.3541   -3.6091   -9.8323 C   0  0  0  0  0  0  0  0  0  0  0  0
   -0.5585   -3.7832   -8.7906 C   0  0  0  0  0  0  0  0  0  0  0  0
   -0.3831   -3.0996   -7.5911 C   0  0  0  0  0  0  0  0  0  0  0  0
    0.7053   -2.2404   -7.4308 C   0  0  0  0  0  0  0  0  0  0  0  0
    1.6327   -2.0536   -8.4690 C   0  0  0  0  0  0  0  0  0  0  0  0
    2.7339   -1.1922   -8.3228 C   0  0  0  0  0  0  0  0  0  0  0  0
    4.6852    0.8354   -7.9808 C   0  0  0  0  0  0  0  0  0  0  0  0
    5.6085    0.4541   -6.9570 O   0  0  0  0  0  0  0  0  0  0  0  0
    6.6972    1.3886   -6.8199 C   0  0  0  0  0  0  0  0  0  0  0  0
    6.5045    0.5965   -4.1992 N   0  0  0  0  0  0  0  0  0  0  0  0
    7.4533    1.5769   -5.1744 S   0  0  0  0  0  0  0  0  0  0  0  0
    7.2368    2.9210   -4.6882 O   0  0  0  0  0  0  0  0  0  0  0  0
    8.7671    0.9724   -5.1597 O   0  0  0  0  0  0  0  0  0  0  0  0
    6.8512    0.6328   -3.2406 H   0  0  0  0  0  0  0  0  0  0  0  0
    6.5463   -0.3641   -4.5396 H   0  0  0  0  0  0  0  0  0  0  0  0
 15 16  1  0  0  0
 16 17  2  0  0  0
 16 18  2  0  0  0
 16 14  1  0  0  0
 14 13  1  0  0  0
 13 12  1  0  0  0
 12  1  1  0  0  0
  1  2  1  0  0  0
  2  3  2  0  0  0
  3  4  1  0  0  0
  4  5  2  0  0  0
  5  6  1  0  0  0
  6  7  2  0  0  0
  7  8  1  0  0  0
  8  9  2  0  0  0
  9 10  1  0  0  0
 10 11  2  0  0  0
 11  2  1  0  0  0
 10  5  1  0  0  0
 15 19  1  0  0  0
 15 20  1  0  0  0
M  END
> <minimizedAffinity>
-6.95825

$$$$
bridge_LYS46_TYR49_sulfonamide_ether3_naphthalene


 20 21  0  0  0  0  0  0  0  0999 V2000
    4.8115   -0.0787   -9.0275 C   0  0  0  0  0  0  0  0  0  0  0  0
    3.6453   -1.0110   -9.2638 C   0  0  0  0  0  0  0  0  0  0  0  0
    3.5235   -1.7005  -10.4741 C   0  0  0  0  0  0  0  0  0  0  0  0
    2.4566   -2.5760  -10.6870 C   0  0  0  0  0  0  0  0  0  0  0  0
    1.4897   -2.7842   -9.6921 C   0  0  0  0  0  0  0  0  0  0  0  0
    0.4114   -3.6618   -9.8911 C   0  0  0  0  0  0  0  0  0  0  0  0
   -0.5415   -3.8595   -8.8906 C   0  0  0  0  0  0  0  0  0  0  0  0
   -0.4287   -3.1830   -7.6797 C   0  0  0  0  0  0  0  0  0  0  0  0
    0.6373   -2.3073   -7.4666 C   0  0  0  0  0  0  0  0  0  0  0  0
    1.6047   -2.0967   -8.4630 C   0  0  0  0  0  0  0  0  0  0  0  0
    2.6841   -1.2186   -8.2636 C   0  0  0  0  0  0  0  0  0  0  0  0
    4.4387    1.0958   -8.1203 C   0  0  0  0  0  0  0  0  0  0  0  0
    5.3036    1.1130   -6.9812 O   0  0  0  0  0  0  0  0  0  0  0  0
    6.3833    2.0575   -7.1224 C   0  0  0  0  0  0  0  0  0  0  0  0
    7.4772    4.5657   -6.9102 N   0  0  0  0  0  0  0  0  0  0  0  0
    5.9762    3.8306   -7.0492 S   0  0  0  0  0  0  0  0  0  0  0  0
    5.2926    4.1240   -5.8097 O   0  0  0  0  0  0  0  0  0  0  0  0
    5.4517    4.2725   -8.3225 O   0  0  0  0  0  0  0  0  0  0  0  0
    7.3570    5.5774   -6.8611 H   0  0  0  0  0  0  0  0  0  0  0  0
    8.0477    4.3301   -7.7222 H   0  0  0  0  0  0  0  0  0  0  0  0
 15 16  1  0  0  0
 16 17  2  0  0  0
 16 18  2  0  0  0
 16 14  1  0  0  0
 14 13  1  0  0  0
 13 12  1  0  0  0
 12  1  1  0  0  0
  1  2  1  0  0  0
  2  3  2  0  0  0
  3  4  1  0  0  0
  4  5  2  0  0  0
  5  6  1  0  0  0
  6  7  2  0  0  0
  7  8  1  0  0  0
  8  9  2  0  0  0
  9 10  1  0  0  0
 10 11  2  0  0  0
 11  2  1  0  0  0
 10  5  1  0  0  0
 15 19  1  0  0  0
 15 20  1  0  0  0
M  END
> <minimizedAffinity>
-6.50420

$$$$
bridge_LYS46_TYR49_sulfonamide_ether3_naphthalene


 20 21  0  0  0  0  0  0  0  0999 V2000
    4.8373    0.0837   -9.2867 C   0  0  0  0  0  0  0  0  0  0  0  0
    3.6758   -0.8719   -9.4387 C   0  0  0  0  0  0  0  0  0  0  0  0
    3.4892   -1.5759  -10.6323 C   0  0  0  0  0  0  0  0  0  0  0  0
    2.4273   -2.4725  -10.7678 C   0  0  0  0  0  0  0  0  0  0  0  0
    1.5304   -2.6878   -9.7108 C   0  0  0  0  0  0  0  0  0  0  0  0
    0.4580   -3.5866   -9.8318 C   0  0  0  0  0  0  0  0  0  0  0  0
   -0.4247   -3.7910   -8.7701 C   0  0  0  0  0  0  0  0  0  0  0  0
   -0.2467   -3.1001   -7.5752 C   0  0  0  0  0  0  0  0  0  0  0  0
    0.8143   -2.2033   -7.4394 C   0  0  0  0  0  0  0  0  0  0  0  0
    1.7115   -1.9857   -8.4979 C   0  0  0  0  0  0  0  0  0  0  0  0
    2.7849   -1.0864   -8.3767 C   0  0  0  0  0  0  0  0  0  0  0  0
    4.9416    0.6464   -7.8676 C   0  0  0  0  0  0  0  0  0  0  0  0
    6.2036    0.2827   -7.3009 O   0  0  0  0  0  0  0  0  0  0  0  0
    7.2296    0.1168   -8.2995 C   0  0  0  0  0  0  0  0  0  0  0  0
    8.8945   -0.2619   -6.1507 N   0  0  0  0  0  0  0  0  0  0  0  0
    8.8045   -0.6368   -7.7828 S   0  0  0  0  0  0  0  0  0  0  0  0
    9.9076    0.0677   -8.3965 O   0  0  0  0  0  0  0  0  0  0  0  0
    8.7065   -2.0786   -7.8381 O   0  0  0  0  0  0  0  0  0  0  0  0
    9.7553   -0.6457   -5.7607 H   0  0  0  0  0  0  0  0  0  0  0  0
    8.0925   -0.6634   -5.6649 H   0  0  0  0  0  0  0  0  0  0  0  0
 15 16  1  0  0  0
 16 17  2  0  0  0
 16 18  2  0  0  0
 16 14  1  0  0  0
 14 13  1  0  0  0
 13 12  1  0  0  0
 12  1  1  0  0  0
  1  2  1  0  0  0
  2  3  2  0  0  0
  3  4  1  0  0  0
  4  5  2  0  0  0
  5  6  1  0  0  0
  6  7  2  0  0  0
  7  8  1  0  0  0
  8  9  2  0  0  0
  9 10  1  0  0  0
 10 11  2  0  0  0
 11  2  1  0  0  0
 10  5  1  0  0  0
 15 19  1  0  0  0
 15 20  1  0  0  0
M  END
> <minimizedAffinity>
-6.47024

$$$$
bridge_LYS46_TYR49_sulfonamide_ether3_naphthalene


 20 21  0  0  0  0  0  0  0  0999 V2000
    4.7060   -1.4463  -11.3158 C   0  0  0  0  0  0  0  0  0  0  0  0
    3.6201   -1.6646  -10.2869 C   0  0  0  0  0  0  0  0  0  0  0  0
    3.6233   -0.9425   -9.0895 C   0  0  0  0  0  0  0  0  0  0  0  0
    2.6110   -1.1299   -8.1460 C   0  0  0  0  0  0  0  0  0  0  0  0
    1.5706   -2.0411   -8.3812 C   0  0  0  0  0  0  0  0  0  0  0  0
    0.5452   -2.2400   -7.4423 C   0  0  0  0  0  0  0  0  0  0  0  0
   -0.4841   -3.1491   -7.6919 C   0  0  0  0  0  0  0  0  0  0  0  0
   -0.5013   -3.8702   -8.8821 C   0  0  0  0  0  0  0  0  0  0  0  0
    0.5107   -3.6837   -9.8252 C   0  0  0  0  0  0  0  0  0  0  0  0
    1.5539   -2.7731   -9.5897 C   0  0  0  0  0  0  0  0  0  0  0  0
    2.5799   -2.5738  -10.5296 C   0  0  0  0  0  0  0  0  0  0  0  0
    4.1361   -1.1758  -12.7099 C   0  0  0  0  0  0  0  0  0  0  0  0
    3.6750    0.1762  -12.7834 O   0  0  0  0  0  0  0  0  0  0  0  0
    2.2879    0.2661  -13.1647 C   0  0  0  0  0  0  0  0  0  0  0  0
    1.3185    1.2661  -10.7997 N   0  0  0  0  0  0  0  0  0  0  0  0
    1.2930    1.6085  -12.4412 S   0  0  0  0  0  0  0  0  0  0  0  0
   -0.0889    1.4614  -12.8393 O   0  0  0  0  0  0  0  0  0  0  0  0
    1.9870    2.8700  -12.5784 O   0  0  0  0  0  0  0  0  0  0  0  0
    0.7802    1.9716  -10.2968 H   0  0  0  0  0  0  0  0  0  0  0  0
    2.2824    1.2720  -10.4660 H   0  0  0  0  0  0  0  0  0  0  0  0
 15 16  1  0  0  0
 16 17  2  0  0  0
 16 18  2  0  0  0
 16 14  1  0  0  0
 14 13  1  0  0  0
 13 12  1  0  0  0
 12  1  1  0  0  0
  1  2  1  0  0  0
  2  3  2  0  0  0
  3  4  1  0  0  0
  4  5  2  0  0  0
  5  6  1  0  0  0
  6  7  2  0  0  0
  7  8  1  0  0  0
  8  9  2  0  0  0
  9 10  1  0  0  0
 10 11  2  0  0  0
 11  2  1  0  0  0
 10  5  1  0  0  0
 15 19  1  0  0  0
 15 20  1  0  0  0
M  END
> <minimizedAffinity>
-6.18937

$$$$
bridge_LYS46_TYR49_sulfonamide_ether3_naphthalene


 20 21  0  0  0  0  0  0  0  0999 V2000
    4.9441   -0.1614   -9.0903 C   0  0  0  0  0  0  0  0  0  0  0  0
    3.7462   -1.0564   -9.3118 C   0  0  0  0  0  0  0  0  0  0  0  0
    3.5862   -1.7394  -10.5215 C   0  0  0  0  0  0  0  0  0  0  0  0
    2.4896   -2.5806  -10.7209 C   0  0  0  0  0  0  0  0  0  0  0  0
    1.5304   -2.7605   -9.7130 C   0  0  0  0  0  0  0  0  0  0  0  0
    0.4226   -3.6037   -9.8985 C   0  0  0  0  0  0  0  0  0  0  0  0
   -0.5221   -3.7735   -8.8851 C   0  0  0  0  0  0  0  0  0  0  0  0
   -0.3715   -3.1032   -7.6748 C   0  0  0  0  0  0  0  0  0  0  0  0
    0.7242   -2.2617   -7.4752 C   0  0  0  0  0  0  0  0  0  0  0  0
    1.6838   -2.0795   -8.4845 C   0  0  0  0  0  0  0  0  0  0  0  0
    2.7928   -1.2359   -8.2987 C   0  0  0  0  0  0  0  0  0  0  0  0
    4.7503    0.7806   -7.9001 C   0  0  0  0  0  0  0  0  0  0  0  0
    4.2140    2.0250   -8.3580 O   0  0  0  0  0  0  0  0  0  0  0  0
    4.8110    2.4611   -9.5954 C   0  0  0  0  0  0  0  0  0  0  0  0
    4.5620    1.8976  -12.2700 N   0  0  0  0  0  0  0  0  0  0  0  0
    3.7207    2.6657  -11.0392 S   0  0  0  0  0  0  0  0  0  0  0  0
    3.6737    4.0589  -11.4222 O   0  0  0  0  0  0  0  0  0  0  0  0
    2.5122    1.8912  -10.8623 O   0  0  0  0  0  0  0  0  0  0  0  0
    4.0267    1.9571  -13.1362 H   0  0  0  0  0  0  0  0  0  0  0  0
    4.7040    0.9178  -12.0247 H   0  0  0  0  0  0  0  0  0  0  0  0
 15 16  1  0  0  0
 16 17  2  0  0  0
 16 18  2  0  0  0
 16 14  1  0  0  0
 14 13  1  0  0  0
 13 12  1  0  0  0
 12  1  1  0  0  0
  1  2  1  0  0  0
  2  3  2  0  0  0
  3  4  1  0  0  0
  4  5  2  0  0  0
  5  6  1  0  0  0
  6  7  2  0  0  0
  7  8  1  0  0  0
  8  9  2  0  0  0
  9 10  1  0  0  0
 10 11  2  0  0  0
 11  2  1  0  0  0
 10  5  1  0  0  0
 15 19  1  0  0  0
 15 20  1  0  0  0
M  END
> <minimizedAffinity>
-6.05896

$$$$
bridge_LYS46_TYR49_sulfonamide_ether3_naphthalene


 20 21  0  0  0  0  0  0  0  0999 V2000
    4.8654   -0.9086  -11.2607 C   0  0  0  0  0  0  0  0  0  0  0  0
    3.7619   -1.2959  -10.3029 C   0  0  0  0  0  0  0  0  0  0  0  0
    3.6724   -0.6934   -9.0443 C   0  0  0  0  0  0  0  0  0  0  0  0
    2.6430   -1.0369   -8.1655 C   0  0  0  0  0  0  0  0  0  0  0  0
    1.6777   -1.9883   -8.5277 C   0  0  0  0  0  0  0  0  0  0  0  0
    0.6363   -2.3438   -7.6551 C   0  0  0  0  0  0  0  0  0  0  0  0
   -0.3175   -3.2910   -8.0311 C   0  0  0  0  0  0  0  0  0  0  0  0
   -0.2423   -3.8942   -9.2830 C   0  0  0  0  0  0  0  0  0  0  0  0
    0.7868   -3.5515  -10.1616 C   0  0  0  0  0  0  0  0  0  0  0  0
    1.7548   -2.6006   -9.7989 C   0  0  0  0  0  0  0  0  0  0  0  0
    2.7969   -2.2445  -10.6725 C   0  0  0  0  0  0  0  0  0  0  0  0
    6.1793   -0.6053  -10.5374 C   0  0  0  0  0  0  0  0  0  0  0  0
    6.7278   -1.8184  -10.0144 O   0  0  0  0  0  0  0  0  0  0  0  0
    8.0861   -2.0395  -10.4429 C   0  0  0  0  0  0  0  0  0  0  0  0
    8.5833   -1.9097   -7.7468 N   0  0  0  0  0  0  0  0  0  0  0  0
    9.4086   -1.8523   -9.2056 S   0  0  0  0  0  0  0  0  0  0  0  0
    9.9603   -0.5181   -9.2784 O   0  0  0  0  0  0  0  0  0  0  0  0
   10.2600   -3.0214   -9.2082 O   0  0  0  0  0  0  0  0  0  0  0  0
    9.2456   -1.8119   -6.9773 H   0  0  0  0  0  0  0  0  0  0  0  0
    8.0975   -2.8030   -7.6659 H   0  0  0  0  0  0  0  0  0  0  0  0
 15 16  1  0  0  0
 16 17  2  0  0  0
 16 18  2  0  0  0
 16 14  1  0  0  0
 14 13  1  0  0  0
 13 12  1  0  0  0
 12  1  1  0  0  0
  1  2  1  0  0  0
  2  3  2  0  0  0
  3  4  1  0  0  0
  4  5  2  0  0  0
  5  6  1  0  0  0
  6  7  2  0  0  0
  7  8  1  0  0  0
  8  9  2  0  0  0
  9 10  1  0  0  0
 10 11  2  0  0  0
 11  2  1  0  0  0
 10  5  1  0  0  0
 15 19  1  0  0  0
 15 20  1  0  0  0
M  END
> <minimizedAffinity>
-6.00061

$$$$
bridge_LYS46_TYR49_sulfonamide_ether3_naphthalene


 20 21  0  0  0  0  0  0  0  0999 V2000
    2.2969   -2.1041  -13.8346 C   0  0  0  0  0  0  0  0  0  0  0  0
    2.2639   -2.2418  -12.3295 C   0  0  0  0  0  0  0  0  0  0  0  0
    3.3434   -1.8066  -11.5546 C   0  0  0  0  0  0  0  0  0  0  0  0
    3.3069   -1.9165  -10.1629 C   0  0  0  0  0  0  0  0  0  0  0  0
    2.1878   -2.4607   -9.5152 C   0  0  0  0  0  0  0  0  0  0  0  0
    2.1361   -2.5772   -8.1165 C   0  0  0  0  0  0  0  0  0  0  0  0
    1.0145   -3.1194   -7.4869 C   0  0  0  0  0  0  0  0  0  0  0  0
   -0.0684   -3.5514   -8.2467 C   0  0  0  0  0  0  0  0  0  0  0  0
   -0.0321   -3.4424   -9.6378 C   0  0  0  0  0  0  0  0  0  0  0  0
    1.0888   -2.8995  -10.2873 C   0  0  0  0  0  0  0  0  0  0  0  0
    1.1404   -2.7826  -11.6871 C   0  0  0  0  0  0  0  0  0  0  0  0
    1.4577   -3.1767  -14.5322 C   0  0  0  0  0  0  0  0  0  0  0  0
    1.7070   -3.1378  -15.9401 O   0  0  0  0  0  0  0  0  0  0  0  0
    3.0911   -2.8789  -16.2483 C   0  0  0  0  0  0  0  0  0  0  0  0
    5.3566   -3.9744  -15.1528 N   0  0  0  0  0  0  0  0  0  0  0  0
    4.2214   -4.3031  -16.3427 S   0  0  0  0  0  0  0  0  0  0  0  0
    4.9537   -4.2638  -17.5885 O   0  0  0  0  0  0  0  0  0  0  0  0
    3.5451   -5.5036  -15.9033 O   0  0  0  0  0  0  0  0  0  0  0  0
    6.0463   -4.7253  -15.1241 H   0  0  0  0  0  0  0  0  0  0  0  0
    4.8906   -3.9060  -14.2480 H   0  0  0  0  0  0  0  0  0  0  0  0
 15 16  1  0  0  0
 16 17  2  0  0  0
 16 18  2  0  0  0
 16 14  1  0  0  0
 14 13  1  0  0  0
 13 12  1  0  0  0
 12  1  1  0  0  0
  1  2  1  0  0  0
  2  3  2  0  0  0
  3  4  1  0  0  0
  4  5  2  0  0  0
  5  6  1  0  0  0
  6  7  2  0  0  0
  7  8  1  0  0  0
  8  9  2  0  0  0
  9 10  1  0  0  0
 10 11  2  0  0  0
 11  2  1  0  0  0
 10  5  1  0  0  0
 15 19  1  0  0  0
 15 20  1  0  0  0
M  END
> <minimizedAffinity>
-5.72095

$$$$
bridge_LYS46_TYR49_sulfonamide_ether3_naphthalene


 20 21  0  0  0  0  0  0  0  0999 V2000
    3.7021   -1.6281  -12.2800 C   0  0  0  0  0  0  0  0  0  0  0  0
    2.9754   -1.8005  -10.9657 C   0  0  0  0  0  0  0  0  0  0  0  0
    3.4069   -1.1199   -9.8230 C   0  0  0  0  0  0  0  0  0  0  0  0
    2.7258   -1.2640   -8.6125 C   0  0  0  0  0  0  0  0  0  0  0  0
    1.5953   -2.0894   -8.5190 C   0  0  0  0  0  0  0  0  0  0  0  0
    0.8995   -2.2440   -7.3088 C   0  0  0  0  0  0  0  0  0  0  0  0
   -0.2248   -3.0676   -7.2326 C   0  0  0  0  0  0  0  0  0  0  0  0
   -0.6673   -3.7465   -8.3641 C   0  0  0  0  0  0  0  0  0  0  0  0
    0.0136   -3.6032   -9.5742 C   0  0  0  0  0  0  0  0  0  0  0  0
    1.1468   -2.7786   -9.6681 C   0  0  0  0  0  0  0  0  0  0  0  0
    1.8429   -2.6236  -10.8794 C   0  0  0  0  0  0  0  0  0  0  0  0
    2.8931   -2.1641  -13.4630 C   0  0  0  0  0  0  0  0  0  0  0  0
    2.3389   -1.0694  -14.1981 O   0  0  0  0  0  0  0  0  0  0  0  0
    0.9702   -0.7985  -13.8365 C   0  0  0  0  0  0  0  0  0  0  0  0
   -0.3458   -3.0567  -14.6742 N   0  0  0  0  0  0  0  0  0  0  0  0
   -0.3382   -1.4024  -14.9494 S   0  0  0  0  0  0  0  0  0  0  0  0
    0.0801   -1.2473  -16.3245 O   0  0  0  0  0  0  0  0  0  0  0  0
   -1.6297   -0.9347  -14.4969 O   0  0  0  0  0  0  0  0  0  0  0  0
   -1.0564   -3.4955  -15.2598 H   0  0  0  0  0  0  0  0  0  0  0  0
   -0.5554   -3.2371  -13.6924 H   0  0  0  0  0  0  0  0  0  0  0  0
 15 16  1  0  0  0
 16 17  2  0  0  0
 16 18  2  0  0  0
 16 14  1  0  0  0
 14 13  1  0  0  0
 13 12  1  0  0  0
 12  1  1  0  0  0
  1  2  1  0  0  0
  2  3  2  0  0  0
  3  4  1  0  0  0
  4  5  2  0  0  0
  5  6  1  0  0  0
  6  7  2  0  0  0
  7  8  1  0  0  0
  8  9  2  0  0  0
  9 10  1  0  0  0
 10 11  2  0  0  0
 11  2  1  0  0  0
 10  5  1  0  0  0
 15 19  1  0  0  0
 15 20  1  0  0  0
M  END
> <minimizedAffinity>
-5.64412

$$$$
bridge_LYS46_TYR49_sulfonamide_ether3_naphthalene


 20 21  0  0  0  0  0  0  0  0999 V2000
    7.1016    0.5299   -9.7625 C   0  0  0  0  0  0  0  0  0  0  0  0
    5.8985   -0.3796   -9.8650 C   0  0  0  0  0  0  0  0  0  0  0  0
    5.8791   -1.4272  -10.7910 C   0  0  0  0  0  0  0  0  0  0  0  0
    4.7760   -2.2794  -10.8743 C   0  0  0  0  0  0  0  0  0  0  0  0
    3.6690   -2.1050  -10.0304 C   0  0  0  0  0  0  0  0  0  0  0  0
    2.5526   -2.9541  -10.1019 C   0  0  0  0  0  0  0  0  0  0  0  0
    1.4597   -2.7685   -9.2539 C   0  0  0  0  0  0  0  0  0  0  0  0
    1.4689   -1.7326   -8.3245 C   0  0  0  0  0  0  0  0  0  0  0  0
    2.5711   -0.8801   -8.2412 C   0  0  0  0  0  0  0  0  0  0  0  0
    3.6789   -1.0528   -9.0872 C   0  0  0  0  0  0  0  0  0  0  0  0
    4.7964   -0.2031   -9.0153 C   0  0  0  0  0  0  0  0  0  0  0  0
    7.3675    0.9776   -8.3237 C   0  0  0  0  0  0  0  0  0  0  0  0
    7.5265    2.3986   -8.2871 O   0  0  0  0  0  0  0  0  0  0  0  0
    6.2654    3.0932   -8.2173 C   0  0  0  0  0  0  0  0  0  0  0  0
    4.1868    3.5436   -6.4825 N   0  0  0  0  0  0  0  0  0  0  0  0
    5.8200    3.8898   -6.6418 S   0  0  0  0  0  0  0  0  0  0  0  0
    5.8925    5.3266   -6.7833 O   0  0  0  0  0  0  0  0  0  0  0  0
    6.4636    3.2071   -5.5411 O   0  0  0  0  0  0  0  0  0  0  0  0
    3.8355    3.9527   -5.6167 H   0  0  0  0  0  0  0  0  0  0  0  0
    4.0543    2.5326   -6.4591 H   0  0  0  0  0  0  0  0  0  0  0  0
 15 16  1  0  0  0
 16 17  2  0  0  0
 16 18  2  0  0  0
 16 14  1  0  0  0
 14 13  1  0  0  0
 13 12  1  0  0  0
 12  1  1  0  0  0
  1  2  1  0  0  0
  2  3  2  0  0  0
  3  4  1  0  0  0
  4  5  2  0  0  0
  5  6  1  0  0  0
  6  7  2  0  0  0
  7  8  1  0  0  0
  8  9  2  0  0  0
  9 10  1  0  0  0
 10 11  2  0  0  0
 11  2  1  0  0  0
 10  5  1  0  0  0
 15 19  1  0  0  0
 15 20  1  0  0  0
M  END
> <minimizedAffinity>
-5.43533

$$$$
