bridge_LYS46_TYR49_carboxylic_acid_butylene_naphthalene


 18 19  0  0  0  0  0  0  0  0999 V2000
    3.6542   -0.9543   -9.3424 C   0  0  0  0  0  0  0  0  0  0  0  0
    3.5105   -1.6540  -10.5447 C   0  0  0  0  0  0  0  0  0  0  0  0
    2.4477   -2.5423  -10.7252 C   0  0  0  0  0  0  0  0  0  0  0  0
    1.5048   -2.7502   -9.7074 C   0  0  0  0  0  0  0  0  0  0  0  0
    0.4303   -3.6391   -9.8743 C   0  0  0  0  0  0  0  0  0  0  0  0
   -0.4994   -3.8345   -8.8517 C   0  0  0  0  0  0  0  0  0  0  0  0
   -0.3666   -3.1446   -7.6504 C   0  0  0  0  0  0  0  0  0  0  0  0
    0.6960   -2.2578   -7.4691 C   0  0  0  0  0  0  0  0  0  0  0  0
    1.6402   -2.0498   -8.4879 C   0  0  0  0  0  0  0  0  0  0  0  0
    2.7153   -1.1600   -8.3209 C   0  0  0  0  0  0  0  0  0  0  0  0
    4.7956    0.0138   -9.1506 C   0  0  0  0  0  0  0  0  0  0  0  0
    4.6163    0.9482   -7.9482 C   0  0  0  0  0  0  0  0  0  0  0  0
    5.8708    1.0398   -7.0693 C   0  0  0  0  0  0  0  0  0  0  0  0
    5.7211    2.0651   -5.9451 C   0  0  0  0  0  0  0  0  0  0  0  0
    7.4702    2.5466   -4.3007 O   0  0  0  0  0  0  0  0  0  0  0  0
    6.6377    1.7972   -4.7809 C   0  0  0  0  0  0  0  0  0  0  0  0
    6.4677    0.5558   -4.2843 O   0  0  0  0  0  0  0  0  0  0  0  0
    5.8256   -0.0147   -4.6587 H   0  0  0  0  0  0  0  0  0  0  0  0
 15 16  2  0  0  0
 16 17  1  0  0  0
 16 14  1  0  0  0
 14 13  1  0  0  0
 13 12  1  0  0  0
 12 11  1  0  0  0
 11  1  1  0  0  0
  1  2  2  0  0  0
  2  3  1  0  0  0
  3  4  2  0  0  0
  4  5  1  0  0  0
  5  6  2  0  0  0
  6  7  1  0  0  0
  7  8  2  0  0  0
  8  9  1  0  0  0
  9 10  2  0  0  0
 10  1  1  0  0  0
  9  4  1  0  0  0
 17 18  1  0  0  0
M  END
> <minimizedAffinity>
-6.87982

$$$$
bridge_LYS46_TYR49_carboxylic_acid_butylene_naphthalene


 18 19  0  0  0  0  0  0  0  0999 V2000
    3.5654   -0.9291   -9.2560 C   0  0  0  0  0  0  0  0  0  0  0  0
    3.4414   -1.5804  -10.4874 C   0  0  0  0  0  0  0  0  0  0  0  0
    2.3933   -2.4756  -10.7135 C   0  0  0  0  0  0  0  0  0  0  0  0
    1.4455   -2.7390   -9.7132 C   0  0  0  0  0  0  0  0  0  0  0  0
    0.3855   -3.6355   -9.9258 C   0  0  0  0  0  0  0  0  0  0  0  0
   -0.5492   -3.8865   -8.9200 C   0  0  0  0  0  0  0  0  0  0  0  0
   -0.4360   -3.2451   -7.6901 C   0  0  0  0  0  0  0  0  0  0  0  0
    0.6121   -2.3515   -7.4634 C   0  0  0  0  0  0  0  0  0  0  0  0
    1.5611   -2.0879   -8.4647 C   0  0  0  0  0  0  0  0  0  0  0  0
    2.6216   -1.1905   -8.2520 C   0  0  0  0  0  0  0  0  0  0  0  0
    4.6910    0.0464   -9.0148 C   0  0  0  0  0  0  0  0  0  0  0  0
    5.8112   -0.0341  -10.0587 C   0  0  0  0  0  0  0  0  0  0  0  0
    6.9260   -1.0125   -9.6658 C   0  0  0  0  0  0  0  0  0  0  0  0
    7.6870   -0.5590   -8.4198 C   0  0  0  0  0  0  0  0  0  0  0  0
    9.2251   -2.4493   -8.6564 O   0  0  0  0  0  0  0  0  0  0  0  0
    8.7679   -1.5235   -8.0091 C   0  0  0  0  0  0  0  0  0  0  0  0
    9.2115   -1.2773   -6.7604 O   0  0  0  0  0  0  0  0  0  0  0  0
    8.8552   -0.5636   -6.2688 H   0  0  0  0  0  0  0  0  0  0  0  0
 15 16  2  0  0  0
 16 17  1  0  0  0
 16 14  1  0  0  0
 14 13  1  0  0  0
 13 12  1  0  0  0
 12 11  1  0  0  0
 11  1  1  0  0  0
  1  2  2  0  0  0
  2  3  1  0  0  0
  3  4  2  0  0  0
  4  5  1  0  0  0
  5  6  2  0  0  0
  6  7  1  0  0  0
  7  8  2  0  0  0
  8  9  1  0  0  0
  9 10  2  0  0  0
 10  1  1  0  0  0
  9  4  1  0  0  0
 17 18  1  0  0  0
M  END
> <minimizedAffinity>
-6.69021

$$$$
bridge_LYS46_TYR49_carboxylic_acid_butylene_naphthalene


 18 19  0  0  0  0  0  0  0  0999 V2000
    3.7844   -1.5250  -10.2319 C   0  0  0  0  0  0  0  0  0  0  0  0
    3.7003   -0.8379   -9.0168 C   0  0  0  0  0  0  0  0  0  0  0  0
    2.6423   -1.0799   -8.1374 C   0  0  0  0  0  0  0  0  0  0  0  0
    1.6452   -2.0148   -8.4537 C   0  0  0  0  0  0  0  0  0  0  0  0
    0.5760   -2.2699   -7.5795 C   0  0  0  0  0  0  0  0  0  0  0  0
   -0.4079   -3.2034   -7.9091 C   0  0  0  0  0  0  0  0  0  0  0  0
   -0.3355   -3.8929   -9.1158 C   0  0  0  0  0  0  0  0  0  0  0  0
    0.7208   -3.6504   -9.9954 C   0  0  0  0  0  0  0  0  0  0  0  0
    1.7190   -2.7143   -9.6790 C   0  0  0  0  0  0  0  0  0  0  0  0
    2.7891   -2.4592  -10.5538 C   0  0  0  0  0  0  0  0  0  0  0  0
    4.9329   -1.2722  -11.1775 C   0  0  0  0  0  0  0  0  0  0  0  0
    6.2411   -1.9508  -10.7541 C   0  0  0  0  0  0  0  0  0  0  0  0
    7.3262   -0.9499  -10.3354 C   0  0  0  0  0  0  0  0  0  0  0  0
    7.5201   -0.9008   -8.8197 C   0  0  0  0  0  0  0  0  0  0  0  0
    9.2039   -2.6732   -8.9560 O   0  0  0  0  0  0  0  0  0  0  0  0
    8.6475   -1.7783   -8.3438 C   0  0  0  0  0  0  0  0  0  0  0  0
    9.0083   -1.4886   -7.0780 O   0  0  0  0  0  0  0  0  0  0  0  0
    8.5758   -0.7991   -6.6137 H   0  0  0  0  0  0  0  0  0  0  0  0
 15 16  2  0  0  0
 16 17  1  0  0  0
 16 14  1  0  0  0
 14 13  1  0  0  0
 13 12  1  0  0  0
 12 11  1  0  0  0
 11  1  1  0  0  0
  1  2  2  0  0  0
  2  3  1  0  0  0
  3  4  2  0  0  0
  4  5  1  0  0  0
  5  6  2  0  0  0
  6  7  1  0  0  0
  7  8  2  0  0  0
  8  9  1  0  0  0
  9 10  2  0  0  0
 10  1  1  0  0  0
  9  4  1  0  0  0
 17 18  1  0  0  0
M  END
> <minimizedAffinity>
-6.57030

$$$$
bridge_LYS46_TYR49_carboxylic_acid_butylene_naphthalene


 18 19  0  0  0  0  0  0  0  0999 V2000
    3.8093   -1.7121  -10.0741 C   0  0  0  0  0  0  0  0  0  0  0  0
    3.6783   -0.9054   -8.9393 C   0  0  0  0  0  0  0  0  0  0  0  0
    2.5825   -1.0548   -8.0860 C   0  0  0  0  0  0  0  0  0  0  0  0
    1.5937   -2.0147   -8.3485 C   0  0  0  0  0  0  0  0  0  0  0  0
    0.4868   -2.1777   -7.4995 C   0  0  0  0  0  0  0  0  0  0  0  0
   -0.4883   -3.1377   -7.7749 C   0  0  0  0  0  0  0  0  0  0  0  0
   -0.3695   -3.9459   -8.9015 C   0  0  0  0  0  0  0  0  0  0  0  0
    0.7247   -3.7960   -9.7552 C   0  0  0  0  0  0  0  0  0  0  0  0
    1.7146   -2.8348   -9.4926 C   0  0  0  0  0  0  0  0  0  0  0  0
    2.8224   -2.6720  -10.3421 C   0  0  0  0  0  0  0  0  0  0  0  0
    4.9984   -1.5589  -10.9904 C   0  0  0  0  0  0  0  0  0  0  0  0
    5.2965   -2.8082  -11.8279 C   0  0  0  0  0  0  0  0  0  0  0  0
    5.5957   -2.4857  -13.2979 C   0  0  0  0  0  0  0  0  0  0  0  0
    4.4642   -2.9174  -14.2311 C   0  0  0  0  0  0  0  0  0  0  0  0
    3.1800   -0.8473  -13.9848 O   0  0  0  0  0  0  0  0  0  0  0  0
    3.2339   -2.0596  -14.0973 C   0  0  0  0  0  0  0  0  0  0  0  0
    2.1064   -2.7979  -14.0890 O   0  0  0  0  0  0  0  0  0  0  0  0
    2.1558   -3.7296  -14.1759 H   0  0  0  0  0  0  0  0  0  0  0  0
 15 16  2  0  0  0
 16 17  1  0  0  0
 16 14  1  0  0  0
 14 13  1  0  0  0
 13 12  1  0  0  0
 12 11  1  0  0  0
 11  1  1  0  0  0
  1  2  2  0  0  0
  2  3  1  0  0  0
  3  4  2  0  0  0
  4  5  1  0  0  0
  5  6  2  0  0  0
  6  7  1  0  0  0
  7  8  2  0  0  0
  8  9  1  0  0  0
  9 10  2  0  0  0
 10  1  1  0  0  0
  9  4  1  0  0  0
 17 18  1  0  0  0
M  END
> <minimizedAffinity>
-6.08597

$$$$
bridge_LYS46_TYR49_carboxylic_acid_butylene_naphthalene


 18 19  0  0  0  0  0  0  0  0999 V2000
    2.7450   -1.8584  -10.9454 C   0  0  0  0  0  0  0  0  0  0  0  0
    4.0471   -2.2660  -10.6384 C   0  0  0  0  0  0  0  0  0  0  0  0
    4.9481   -2.5867  -11.6565 C   0  0  0  0  0  0  0  0  0  0  0  0
    4.5670   -2.5064  -13.0043 C   0  0  0  0  0  0  0  0  0  0  0  0
    5.4618   -2.8244  -14.0391 C   0  0  0  0  0  0  0  0  0  0  0  0
    5.0669   -2.7391  -15.3751 C   0  0  0  0  0  0  0  0  0  0  0  0
    3.7736   -2.3354  -15.6932 C   0  0  0  0  0  0  0  0  0  0  0  0
    2.8725   -2.0163  -14.6761 C   0  0  0  0  0  0  0  0  0  0  0  0
    3.2538   -2.0969  -13.3267 C   0  0  0  0  0  0  0  0  0  0  0  0
    2.3584   -1.7784  -12.2913 C   0  0  0  0  0  0  0  0  0  0  0  0
    1.7745   -1.5012   -9.8466 C   0  0  0  0  0  0  0  0  0  0  0  0
    2.3629   -1.6339   -8.4369 C   0  0  0  0  0  0  0  0  0  0  0  0
    1.9343   -2.9260   -7.7288 C   0  0  0  0  0  0  0  0  0  0  0  0
    0.5068   -3.3404   -8.0865 C   0  0  0  0  0  0  0  0  0  0  0  0
   -1.7261   -2.7797   -7.2531 O   0  0  0  0  0  0  0  0  0  0  0  0
   -0.5165   -2.8216   -7.1112 C   0  0  0  0  0  0  0  0  0  0  0  0
    0.0570   -2.3487   -5.9870 O   0  0  0  0  0  0  0  0  0  0  0  0
    0.9878   -2.3844   -5.8851 H   0  0  0  0  0  0  0  0  0  0  0  0
 15 16  2  0  0  0
 16 17  1  0  0  0
 16 14  1  0  0  0
 14 13  1  0  0  0
 13 12  1  0  0  0
 12 11  1  0  0  0
 11  1  1  0  0  0
  1  2  2  0  0  0
  2  3  1  0  0  0
  3  4  2  0  0  0
  4  5  1  0  0  0
  5  6  2  0  0  0
  6  7  1  0  0  0
  7  8  2  0  0  0
  8  9  1  0  0  0
  9 10  2  0  0  0
 10  1  1  0  0  0
  9  4  1  0  0  0
 17 18  1  0  0  0
M  END
> <minimizedAffinity>
-5.95454

$$$$
bridge_LYS46_TYR49_carboxylic_acid_butylene_naphthalene


 18 19  0  0  0  0  0  0  0  0999 V2000
    3.5936   -1.2226   -9.5304 C   0  0  0  0  0  0  0  0  0  0  0  0
    3.2980   -1.9448  -10.6909 C   0  0  0  0  0  0  0  0  0  0  0  0
    2.1647   -2.7592  -10.7497 C   0  0  0  0  0  0  0  0  0  0  0  0
    1.3016   -2.8691   -9.6492 C   0  0  0  0  0  0  0  0  0  0  0  0
    0.1577   -3.6829   -9.6932 C   0  0  0  0  0  0  0  0  0  0  0  0
   -0.6909   -3.7811   -8.5895 C   0  0  0  0  0  0  0  0  0  0  0  0
   -0.4070   -3.0679   -7.4287 C   0  0  0  0  0  0  0  0  0  0  0  0
    0.7262   -2.2550   -7.3692 C   0  0  0  0  0  0  0  0  0  0  0  0
    1.5905   -2.1451   -8.4708 C   0  0  0  0  0  0  0  0  0  0  0  0
    2.7350   -1.3305   -8.4267 C   0  0  0  0  0  0  0  0  0  0  0  0
    4.8116   -0.3340   -9.4699 C   0  0  0  0  0  0  0  0  0  0  0  0
    4.8457    0.5829   -8.2414 C   0  0  0  0  0  0  0  0  0  0  0  0
    4.3960    2.0166   -8.5522 C   0  0  0  0  0  0  0  0  0  0  0  0
    4.4500    2.3332  -10.0470 C   0  0  0  0  0  0  0  0  0  0  0  0
    3.7941    4.3587  -11.2561 O   0  0  0  0  0  0  0  0  0  0  0  0
    4.3759    3.8089  -10.3372 C   0  0  0  0  0  0  0  0  0  0  0  0
    5.0776    4.5318   -9.4420 O   0  0  0  0  0  0  0  0  0  0  0  0
    5.5223    4.1019   -8.7381 H   0  0  0  0  0  0  0  0  0  0  0  0
 15 16  2  0  0  0
 16 17  1  0  0  0
 16 14  1  0  0  0
 14 13  1  0  0  0
 13 12  1  0  0  0
 12 11  1  0  0  0
 11  1  1  0  0  0
  1  2  2  0  0  0
  2  3  1  0  0  0
  3  4  2  0  0  0
  4  5  1  0  0  0
  5  6  2  0  0  0
  6  7  1  0  0  0
  7  8  2  0  0  0
  8  9  1  0  0  0
  9 10  2  0  0  0
 10  1  1  0  0  0
  9  4  1  0  0  0
 17 18  1  0  0  0
M  END
> <minimizedAffinity>
-5.89891

$$$$
bridge_LYS46_TYR49_carboxylic_acid_butylene_naphthalene


 18 19  0  0  0  0  0  0  0  0999 V2000
    3.0861   -2.0280  -10.5782 C   0  0  0  0  0  0  0  0  0  0  0  0
    3.4421   -1.3783   -9.3921 C   0  0  0  0  0  0  0  0  0  0  0  0
    2.6229   -1.4632   -8.2639 C   0  0  0  0  0  0  0  0  0  0  0  0
    1.4295   -2.2000   -8.2968 C   0  0  0  0  0  0  0  0  0  0  0  0
    0.5960   -2.2957   -7.1705 C   0  0  0  0  0  0  0  0  0  0  0  0
   -0.5881   -3.0331   -7.2198 C   0  0  0  0  0  0  0  0  0  0  0  0
   -0.9536   -3.6834   -8.3947 C   0  0  0  0  0  0  0  0  0  0  0  0
   -0.1359   -3.5977   -9.5227 C   0  0  0  0  0  0  0  0  0  0  0  0
    1.0588   -2.8598   -9.4899 C   0  0  0  0  0  0  0  0  0  0  0  0
    1.8930   -2.7644  -10.6170 C   0  0  0  0  0  0  0  0  0  0  0  0
    3.9760   -1.9460  -11.7941 C   0  0  0  0  0  0  0  0  0  0  0  0
    5.1955   -2.8732  -11.7293 C   0  0  0  0  0  0  0  0  0  0  0  0
    6.5068   -2.1198  -11.4700 C   0  0  0  0  0  0  0  0  0  0  0  0
    7.2536   -1.7881  -12.7622 C   0  0  0  0  0  0  0  0  0  0  0  0
    9.5010   -2.4118  -13.5072 O   0  0  0  0  0  0  0  0  0  0  0  0
    8.7407   -1.9960  -12.6503 C   0  0  0  0  0  0  0  0  0  0  0  0
    9.1999   -1.6819  -11.4227 O   0  0  0  0  0  0  0  0  0  0  0  0
    8.6093   -1.3628  -10.7691 H   0  0  0  0  0  0  0  0  0  0  0  0
 15 16  2  0  0  0
 16 17  1  0  0  0
 16 14  1  0  0  0
 14 13  1  0  0  0
 13 12  1  0  0  0
 12 11  1  0  0  0
 11  1  1  0  0  0
  1  2  2  0  0  0
  2  3  1  0  0  0
  3  4  2  0  0  0
  4  5  1  0  0  0
  5  6  2  0  0  0
  6  7  1  0  0  0
  7  8  2  0  0  0
  8  9  1  0  0  0
  9 10  2  0  0  0
 10  1  1  0  0  0
  9  4  1  0  0  0
 17 18  1  0  0  0
M  END
> <minimizedAffinity>
-5.81530

$$$$
bridge_LYS46_TYR49_carboxylic_acid_butylene_naphthalene


 18 19  0  0  0  0  0  0  0  0999 V2000
    4.7506    0.2065  -10.1045 C   0  0  0  0  0  0  0  0  0  0  0  0
    4.0447    1.3558  -10.4742 C   0  0  0  0  0  0  0  0  0  0  0  0
    3.9761    2.4533   -9.6130 C   0  0  0  0  0  0  0  0  0  0  0  0
    4.6123    2.4261   -8.3629 C   0  0  0  0  0  0  0  0  0  0  0  0
    4.5534    3.5220   -7.4865 C   0  0  0  0  0  0  0  0  0  0  0  0
    5.1921    3.4787   -6.2462 C   0  0  0  0  0  0  0  0  0  0  0  0
    5.8970    2.3404   -5.8666 C   0  0  0  0  0  0  0  0  0  0  0  0
    5.9646    1.2429   -6.7265 C   0  0  0  0  0  0  0  0  0  0  0  0
    5.3275    1.2700   -7.9779 C   0  0  0  0  0  0  0  0  0  0  0  0
    5.3867    0.1734   -8.8549 C   0  0  0  0  0  0  0  0  0  0  0  0
    4.8344   -0.9753  -11.0389 C   0  0  0  0  0  0  0  0  0  0  0  0
    4.3984   -2.2990  -10.3995 C   0  0  0  0  0  0  0  0  0  0  0  0
    2.8741   -2.4366  -10.2891 C   0  0  0  0  0  0  0  0  0  0  0  0
    2.4403   -3.0671   -8.9655 C   0  0  0  0  0  0  0  0  0  0  0  0
    2.3860   -0.9046   -7.8186 O   0  0  0  0  0  0  0  0  0  0  0  0
    1.9907   -2.0498   -7.9506 C   0  0  0  0  0  0  0  0  0  0  0  0
    1.0570   -2.5511   -7.1179 O   0  0  0  0  0  0  0  0  0  0  0  0
    0.7580   -3.4326   -7.2256 H   0  0  0  0  0  0  0  0  0  0  0  0
 15 16  2  0  0  0
 16 17  1  0  0  0
 16 14  1  0  0  0
 14 13  1  0  0  0
 13 12  1  0  0  0
 12 11  1  0  0  0
 11  1  1  0  0  0
  1  2  2  0  0  0
  2  3  1  0  0  0
  3  4  2  0  0  0
  4  5  1  0  0  0
  5  6  2  0  0  0
  6  7  1  0  0  0
  7  8  2  0  0  0
  8  9  1  0  0  0
  9 10  2  0  0  0
 10  1  1  0  0  0
  9  4  1  0  0  0
 17 18  1  0  0  0
M  END
> <minimizedAffinity>
-5.70032

$$$$
bridge_LYS46_TYR49_carboxylic_acid_butylene_naphthalene


 18 19  0  0  0  0  0  0  0  0999 V2000
    2.2674   -2.1413  -12.4469 C   0  0  0  0  0  0  0  0  0  0  0  0
    3.3667   -1.7228  -11.6905 C   0  0  0  0  0  0  0  0  0  0  0  0
    3.3730   -1.8792  -10.3025 C   0  0  0  0  0  0  0  0  0  0  0  0
    2.2801   -2.4580   -9.6402 C   0  0  0  0  0  0  0  0  0  0  0  0
    2.2720   -2.6230   -8.2454 C   0  0  0  0  0  0  0  0  0  0  0  0
    1.1767   -3.2010   -7.6018 C   0  0  0  0  0  0  0  0  0  0  0  0
    0.0765   -3.6207   -8.3435 C   0  0  0  0  0  0  0  0  0  0  0  0
    0.0693   -3.4634   -9.7304 C   0  0  0  0  0  0  0  0  0  0  0  0
    1.1633   -2.8837  -10.3936 C   0  0  0  0  0  0  0  0  0  0  0  0
    1.1714   -2.7188  -11.7894 C   0  0  0  0  0  0  0  0  0  0  0  0
    2.2645   -1.9829  -13.9476 C   0  0  0  0  0  0  0  0  0  0  0  0
    1.5960   -3.1466  -14.6892 C   0  0  0  0  0  0  0  0  0  0  0  0
    2.3195   -3.5220  -15.9893 C   0  0  0  0  0  0  0  0  0  0  0  0
    3.3532   -4.6293  -15.7821 C   0  0  0  0  0  0  0  0  0  0  0  0
    5.5110   -4.0262  -16.7696 O   0  0  0  0  0  0  0  0  0  0  0  0
    4.7703   -4.1209  -15.8065 C   0  0  0  0  0  0  0  0  0  0  0  0
    5.1986   -3.7706  -14.5775 O   0  0  0  0  0  0  0  0  0  0  0  0
    4.6233   -3.8462  -13.8417 H   0  0  0  0  0  0  0  0  0  0  0  0
 15 16  2  0  0  0
 16 17  1  0  0  0
 16 14  1  0  0  0
 14 13  1  0  0  0
 13 12  1  0  0  0
 12 11  1  0  0  0
 11  1  1  0  0  0
  1  2  2  0  0  0
  2  3  1  0  0  0
  3  4  2  0  0  0
  4  5  1  0  0  0
  5  6  2  0  0  0
  6  7  1  0  0  0
  7  8  2  0  0  0
  8  9  1  0  0  0
  9 10  2  0  0  0
 10  1  1  0  0  0
  9  4  1  0  0  0
 17 18  1  0  0  0
M  END
> <minimizedAffinity>
-5.65945

$$$$
