bridge_LYS46_TYR49_carboxylic_acid_pentylene_naphthalene


 19 20  0  0  0  0  0  0  0  0999 V2000
    3.5621   -0.9510   -9.0933 C   0  0  0  0  0  0  0  0  0  0  0  0
    3.5064   -1.6601  -10.2973 C   0  0  0  0  0  0  0  0  0  0  0  0
    2.4696   -2.5640  -10.5408 C   0  0  0  0  0  0  0  0  0  0  0  0
    1.4637   -2.7778   -9.5867 C   0  0  0  0  0  0  0  0  0  0  0  0
    0.4155   -3.6839   -9.8167 C   0  0  0  0  0  0  0  0  0  0  0  0
   -0.5781   -3.8839   -8.8571 C   0  0  0  0  0  0  0  0  0  0  0  0
   -0.5367   -3.1812   -7.6566 C   0  0  0  0  0  0  0  0  0  0  0  0
    0.4986   -2.2770   -7.4132 C   0  0  0  0  0  0  0  0  0  0  0  0
    1.5063   -2.0643   -8.3681 C   0  0  0  0  0  0  0  0  0  0  0  0
    2.5556   -1.1580   -8.1381 C   0  0  0  0  0  0  0  0  0  0  0  0
    4.6855    0.0206   -8.8257 C   0  0  0  0  0  0  0  0  0  0  0  0
    4.2964    1.4919   -9.0157 C   0  0  0  0  0  0  0  0  0  0  0  0
    4.7559    2.4436   -7.9042 C   0  0  0  0  0  0  0  0  0  0  0  0
    5.3683    1.7217   -6.6992 C   0  0  0  0  0  0  0  0  0  0  0  0
    6.1550    2.6701   -5.7936 C   0  0  0  0  0  0  0  0  0  0  0  0
    7.5631    2.4438   -3.8038 O   0  0  0  0  0  0  0  0  0  0  0  0
    6.8139    1.9654   -4.6375 C   0  0  0  0  0  0  0  0  0  0  0  0
    6.5111    0.6524   -4.6115 O   0  0  0  0  0  0  0  0  0  0  0  0
    5.9342    0.2918   -5.2559 H   0  0  0  0  0  0  0  0  0  0  0  0
 16 17  2  0  0  0
 17 18  1  0  0  0
 17 15  1  0  0  0
 15 14  1  0  0  0
 14 13  1  0  0  0
 13 12  1  0  0  0
 12 11  1  0  0  0
 11  1  1  0  0  0
  1  2  2  0  0  0
  2  3  1  0  0  0
  3  4  2  0  0  0
  4  5  1  0  0  0
  5  6  2  0  0  0
  6  7  1  0  0  0
  7  8  2  0  0  0
  8  9  1  0  0  0
  9 10  2  0  0  0
 10  1  1  0  0  0
  9  4  1  0  0  0
 18 19  1  0  0  0
M  END
> <minimizedAffinity>
-6.69303

$$$$
bridge_LYS46_TYR49_carboxylic_acid_pentylene_naphthalene


 19 20  0  0  0  0  0  0  0  0999 V2000
    3.4296   -1.7851  -10.4528 C   0  0  0  0  0  0  0  0  0  0  0  0
    3.5546   -1.0517   -9.2688 C   0  0  0  0  0  0  0  0  0  0  0  0
    2.6144   -1.1915   -8.2452 C   0  0  0  0  0  0  0  0  0  0  0  0
    1.5291   -2.0698   -8.3815 C   0  0  0  0  0  0  0  0  0  0  0  0
    0.5753   -2.2206   -7.3615 C   0  0  0  0  0  0  0  0  0  0  0  0
   -0.4981   -3.0999   -7.5129 C   0  0  0  0  0  0  0  0  0  0  0  0
   -0.6314   -3.8390   -8.6845 C   0  0  0  0  0  0  0  0  0  0  0  0
    0.3084   -3.7004   -9.7073 C   0  0  0  0  0  0  0  0  0  0  0  0
    1.3941   -2.8198   -9.5711 C   0  0  0  0  0  0  0  0  0  0  0  0
    2.3485   -2.6683  -10.5916 C   0  0  0  0  0  0  0  0  0  0  0  0
    4.4406   -1.6297  -11.5627 C   0  0  0  0  0  0  0  0  0  0  0  0
    5.4190   -2.8045  -11.6842 C   0  0  0  0  0  0  0  0  0  0  0  0
    6.8931   -2.4626  -11.4340 C   0  0  0  0  0  0  0  0  0  0  0  0
    7.1012   -1.4697  -10.2855 C   0  0  0  0  0  0  0  0  0  0  0  0
    8.5815   -1.2438   -9.9754 C   0  0  0  0  0  0  0  0  0  0  0  0
    9.8898   -3.1741   -9.2300 O   0  0  0  0  0  0  0  0  0  0  0  0
    9.1355   -2.2456   -8.9973 C   0  0  0  0  0  0  0  0  0  0  0  0
    8.6712   -2.0381   -7.7492 O   0  0  0  0  0  0  0  0  0  0  0  0
    8.0915   -1.3221   -7.5780 H   0  0  0  0  0  0  0  0  0  0  0  0
 16 17  2  0  0  0
 17 18  1  0  0  0
 17 15  1  0  0  0
 15 14  1  0  0  0
 14 13  1  0  0  0
 13 12  1  0  0  0
 12 11  1  0  0  0
 11  1  1  0  0  0
  1  2  2  0  0  0
  2  3  1  0  0  0
  3  4  2  0  0  0
  4  5  1  0  0  0
  5  6  2  0  0  0
  6  7  1  0  0  0
  7  8  2  0  0  0
  8  9  1  0  0  0
  9 10  2  0  0  0
 10  1  1  0  0  0
  9  4  1  0  0  0
 18 19  1  0  0  0
M  END
> <minimizedAffinity>
-6.65775

$$$$
bridge_LYS46_TYR49_carboxylic_acid_pentylene_naphthalene


 19 20  0  0  0  0  0  0  0  0999 V2000
    3.5752   -1.0370   -9.4646 C   0  0  0  0  0  0  0  0  0  0  0  0
    3.3327   -1.7484  -10.6438 C   0  0  0  0  0  0  0  0  0  0  0  0
    2.2437   -2.6184  -10.7360 C   0  0  0  0  0  0  0  0  0  0  0  0
    1.3712   -2.7951   -9.6518 C   0  0  0  0  0  0  0  0  0  0  0  0
    0.2727   -3.6668   -9.7291 C   0  0  0  0  0  0  0  0  0  0  0  0
   -0.5864   -3.8301   -8.6413 C   0  0  0  0  0  0  0  0  0  0  0  0
   -0.3587   -3.1245   -7.4636 C   0  0  0  0  0  0  0  0  0  0  0  0
    0.7288   -2.2542   -7.3712 C   0  0  0  0  0  0  0  0  0  0  0  0
    1.6030   -2.0787   -8.4565 C   0  0  0  0  0  0  0  0  0  0  0  0
    2.7025   -1.2068   -8.3793 C   0  0  0  0  0  0  0  0  0  0  0  0
    4.7555   -0.1021   -9.3608 C   0  0  0  0  0  0  0  0  0  0  0  0
    4.6973    0.8448   -8.1558 C   0  0  0  0  0  0  0  0  0  0  0  0
    5.9686    0.9003   -7.2996 C   0  0  0  0  0  0  0  0  0  0  0  0
    5.7801    1.6530   -5.9781 C   0  0  0  0  0  0  0  0  0  0  0  0
    6.3691    3.0635   -6.0252 C   0  0  0  0  0  0  0  0  0  0  0  0
    5.5330    5.2844   -6.6267 O   0  0  0  0  0  0  0  0  0  0  0  0
    5.3387    4.1198   -6.3249 C   0  0  0  0  0  0  0  0  0  0  0  0
    4.0832    3.6478   -6.1933 O   0  0  0  0  0  0  0  0  0  0  0  0
    3.9417    2.7511   -5.9610 H   0  0  0  0  0  0  0  0  0  0  0  0
 16 17  2  0  0  0
 17 18  1  0  0  0
 17 15  1  0  0  0
 15 14  1  0  0  0
 14 13  1  0  0  0
 13 12  1  0  0  0
 12 11  1  0  0  0
 11  1  1  0  0  0
  1  2  2  0  0  0
  2  3  1  0  0  0
  3  4  2  0  0  0
  4  5  1  0  0  0
  5  6  2  0  0  0
  6  7  1  0  0  0
  7  8  2  0  0  0
  8  9  1  0  0  0
  9 10  2  0  0  0
 10  1  1  0  0  0
  9  4  1  0  0  0
 18 19  1  0  0  0
M  END
> <minimizedAffinity>
-6.62838

$$$$
bridge_LYS46_TYR49_carboxylic_acid_pentylene_naphthalene


 19 20  0  0  0  0  0  0  0  0999 V2000
    4.9896   -0.1593   -9.6871 C   0  0  0  0  0  0  0  0  0  0  0  0
    4.4130    0.8825  -10.4203 C   0  0  0  0  0  0  0  0  0  0  0  0
    4.2624    2.1502   -9.8533 C   0  0  0  0  0  0  0  0  0  0  0  0
    4.6869    2.4056   -8.5409 C   0  0  0  0  0  0  0  0  0  0  0  0
    4.5414    3.6746   -7.9570 C   0  0  0  0  0  0  0  0  0  0  0  0
    4.9704    3.9120   -6.6501 C   0  0  0  0  0  0  0  0  0  0  0  0
    5.5499    2.8849   -5.9113 C   0  0  0  0  0  0  0  0  0  0  0  0
    5.7016    1.6182   -6.4777 C   0  0  0  0  0  0  0  0  0  0  0  0
    5.2750    1.3625   -7.7913 C   0  0  0  0  0  0  0  0  0  0  0  0
    5.4201    0.0927   -8.3758 C   0  0  0  0  0  0  0  0  0  0  0  0
    5.1465   -1.5315  -10.2956 C   0  0  0  0  0  0  0  0  0  0  0  0
    3.8403   -2.1281  -10.8341 C   0  0  0  0  0  0  0  0  0  0  0  0
    2.9565   -2.8263   -9.7930 C   0  0  0  0  0  0  0  0  0  0  0  0
    1.7648   -1.9770   -9.3384 C   0  0  0  0  0  0  0  0  0  0  0  0
    1.6427   -1.9175   -7.8152 C   0  0  0  0  0  0  0  0  0  0  0  0
   -0.2800   -3.4309   -7.8910 O   0  0  0  0  0  0  0  0  0  0  0  0
    0.4249   -2.6347   -7.2958 C   0  0  0  0  0  0  0  0  0  0  0  0
    0.1331   -2.2760   -6.0298 O   0  0  0  0  0  0  0  0  0  0  0  0
    0.6798   -1.6632   -5.5786 H   0  0  0  0  0  0  0  0  0  0  0  0
 16 17  2  0  0  0
 17 18  1  0  0  0
 17 15  1  0  0  0
 15 14  1  0  0  0
 14 13  1  0  0  0
 13 12  1  0  0  0
 12 11  1  0  0  0
 11  1  1  0  0  0
  1  2  2  0  0  0
  2  3  1  0  0  0
  3  4  2  0  0  0
  4  5  1  0  0  0
  5  6  2  0  0  0
  6  7  1  0  0  0
  7  8  2  0  0  0
  8  9  1  0  0  0
  9 10  2  0  0  0
 10  1  1  0  0  0
  9  4  1  0  0  0
 18 19  1  0  0  0
M  END
> <minimizedAffinity>
-6.59527

$$$$
bridge_LYS46_TYR49_carboxylic_acid_pentylene_naphthalene


 19 20  0  0  0  0  0  0  0  0999 V2000
    3.7298   -1.6442  -10.1562 C   0  0  0  0  0  0  0  0  0  0  0  0
    3.6213   -0.9289   -8.9596 C   0  0  0  0  0  0  0  0  0  0  0  0
    2.5392   -1.1409   -8.1021 C   0  0  0  0  0  0  0  0  0  0  0  0
    1.5421   -2.0749   -8.4206 C   0  0  0  0  0  0  0  0  0  0  0  0
    0.4479   -2.2985   -7.5689 C   0  0  0  0  0  0  0  0  0  0  0  0
   -0.5349   -3.2324   -7.9004 C   0  0  0  0  0  0  0  0  0  0  0  0
   -0.4364   -3.9542   -9.0862 C   0  0  0  0  0  0  0  0  0  0  0  0
    0.6452   -3.7434   -9.9431 C   0  0  0  0  0  0  0  0  0  0  0  0
    1.6426   -2.8071   -9.6245 C   0  0  0  0  0  0  0  0  0  0  0  0
    2.7375   -2.5828  -10.4766 C   0  0  0  0  0  0  0  0  0  0  0  0
    4.8944   -1.4111  -11.0874 C   0  0  0  0  0  0  0  0  0  0  0  0
    5.8927   -0.3600  -10.5867 C   0  0  0  0  0  0  0  0  0  0  0  0
    7.1001   -0.9115   -9.8183 C   0  0  0  0  0  0  0  0  0  0  0  0
    7.3006   -0.2559   -8.4478 C   0  0  0  0  0  0  0  0  0  0  0  0
    6.5276    1.0568   -8.3145 C   0  0  0  0  0  0  0  0  0  0  0  0
    6.2341    0.7703   -5.9010 O   0  0  0  0  0  0  0  0  0  0  0  0
    5.8595    1.2105   -6.9738 C   0  0  0  0  0  0  0  0  0  0  0  0
    4.7065    1.9026   -7.0641 O   0  0  0  0  0  0  0  0  0  0  0  0
    4.4250    2.2380   -7.8925 H   0  0  0  0  0  0  0  0  0  0  0  0
 16 17  2  0  0  0
 17 18  1  0  0  0
 17 15  1  0  0  0
 15 14  1  0  0  0
 14 13  1  0  0  0
 13 12  1  0  0  0
 12 11  1  0  0  0
 11  1  1  0  0  0
  1  2  2  0  0  0
  2  3  1  0  0  0
  3  4  2  0  0  0
  4  5  1  0  0  0
  5  6  2  0  0  0
  6  7  1  0  0  0
  7  8  2  0  0  0
  8  9  1  0  0  0
  9 10  2  0  0  0
 10  1  1  0  0  0
  9  4  1  0  0  0
 18 19  1  0  0  0
M  END
> <minimizedAffinity>
-6.39794

$$$$
bridge_LYS46_TYR49_carboxylic_acid_pentylene_naphthalene


 19 20  0  0  0  0  0  0  0  0999 V2000
    3.6802   -1.6403  -10.2398 C   0  0  0  0  0  0  0  0  0  0  0  0
    3.6428   -0.9041   -9.0515 C   0  0  0  0  0  0  0  0  0  0  0  0
    2.6075   -1.0924   -8.1327 C   0  0  0  0  0  0  0  0  0  0  0  0
    1.5873   -2.0229   -8.3804 C   0  0  0  0  0  0  0  0  0  0  0  0
    0.5395   -2.2227   -7.4667 C   0  0  0  0  0  0  0  0  0  0  0  0
   -0.4672   -3.1535   -7.7282 C   0  0  0  0  0  0  0  0  0  0  0  0
   -0.4391   -3.8958   -8.9050 C   0  0  0  0  0  0  0  0  0  0  0  0
    0.5957   -3.7088   -9.8230 C   0  0  0  0  0  0  0  0  0  0  0  0
    1.6162   -2.7760   -9.5753 C   0  0  0  0  0  0  0  0  0  0  0  0
    2.6646   -2.5754  -10.4895 C   0  0  0  0  0  0  0  0  0  0  0  0
    4.7941   -1.4328  -11.2368 C   0  0  0  0  0  0  0  0  0  0  0  0
    4.9423   -2.5722  -12.2526 C   0  0  0  0  0  0  0  0  0  0  0  0
    4.6718   -2.1916  -13.7136 C   0  0  0  0  0  0  0  0  0  0  0  0
    3.2908   -2.6309  -14.2114 C   0  0  0  0  0  0  0  0  0  0  0  0
    2.2213   -1.5649  -13.9696 C   0  0  0  0  0  0  0  0  0  0  0  0
    0.6058   -3.3114  -13.3924 O   0  0  0  0  0  0  0  0  0  0  0  0
    0.8713   -2.1503  -13.6500 C   0  0  0  0  0  0  0  0  0  0  0  0
   -0.1041   -1.2218  -13.7052 O   0  0  0  0  0  0  0  0  0  0  0  0
    0.1077   -0.3309  -13.9039 H   0  0  0  0  0  0  0  0  0  0  0  0
 16 17  2  0  0  0
 17 18  1  0  0  0
 17 15  1  0  0  0
 15 14  1  0  0  0
 14 13  1  0  0  0
 13 12  1  0  0  0
 12 11  1  0  0  0
 11  1  1  0  0  0
  1  2  2  0  0  0
  2  3  1  0  0  0
  3  4  2  0  0  0
  4  5  1  0  0  0
  5  6  2  0  0  0
  6  7  1  0  0  0
  7  8  2  0  0  0
  8  9  1  0  0  0
  9 10  2  0  0  0
 10  1  1  0  0  0
  9  4  1  0  0  0
 18 19  1  0  0  0
M  END
> <minimizedAffinity>
-6.38825

$$$$
bridge_LYS46_TYR49_carboxylic_acid_pentylene_naphthalene


 19 20  0  0  0  0  0  0  0  0999 V2000
    3.4766   -0.8406   -8.9446 C   0  0  0  0  0  0  0  0  0  0  0  0
    3.5670   -1.5694  -10.1345 C   0  0  0  0  0  0  0  0  0  0  0  0
    2.6095   -2.5370  -10.4482 C   0  0  0  0  0  0  0  0  0  0  0  0
    1.5385   -2.7961   -9.5800 C   0  0  0  0  0  0  0  0  0  0  0  0
    0.5686   -3.7662   -9.8812 C   0  0  0  0  0  0  0  0  0  0  0  0
   -0.4915   -4.0107   -9.0068 C   0  0  0  0  0  0  0  0  0  0  0  0
   -0.5954   -3.2891   -7.8214 C   0  0  0  0  0  0  0  0  0  0  0  0
    0.3606   -2.3214   -7.5079 C   0  0  0  0  0  0  0  0  0  0  0  0
    1.4335   -2.0633   -8.3767 C   0  0  0  0  0  0  0  0  0  0  0  0
    2.4045   -1.0929   -8.0755 C   0  0  0  0  0  0  0  0  0  0  0  0
    4.5143    0.2000   -8.6007 C   0  0  0  0  0  0  0  0  0  0  0  0
    5.0336    0.9866   -9.8105 C   0  0  0  0  0  0  0  0  0  0  0  0
    6.5260    0.8124  -10.1183 C   0  0  0  0  0  0  0  0  0  0  0  0
    7.1202   -0.4766   -9.5407 C   0  0  0  0  0  0  0  0  0  0  0  0
    8.3215   -0.2058   -8.6341 C   0  0  0  0  0  0  0  0  0  0  0  0
    9.1572   -2.5068   -8.6179 O   0  0  0  0  0  0  0  0  0  0  0  0
    8.9059   -1.4616   -8.0437 C   0  0  0  0  0  0  0  0  0  0  0  0
    9.1184   -1.3414   -6.7182 O   0  0  0  0  0  0  0  0  0  0  0  0
    8.9227   -0.5346   -6.2837 H   0  0  0  0  0  0  0  0  0  0  0  0
 16 17  2  0  0  0
 17 18  1  0  0  0
 17 15  1  0  0  0
 15 14  1  0  0  0
 14 13  1  0  0  0
 13 12  1  0  0  0
 12 11  1  0  0  0
 11  1  1  0  0  0
  1  2  2  0  0  0
  2  3  1  0  0  0
  3  4  2  0  0  0
  4  5  1  0  0  0
  5  6  2  0  0  0
  6  7  1  0  0  0
  7  8  2  0  0  0
  8  9  1  0  0  0
  9 10  2  0  0  0
 10  1  1  0  0  0
  9  4  1  0  0  0
 18 19  1  0  0  0
M  END
> <minimizedAffinity>
-6.36490

$$$$
bridge_LYS46_TYR49_carboxylic_acid_pentylene_naphthalene


 19 20  0  0  0  0  0  0  0  0999 V2000
    3.6388   -1.6443  -10.3127 C   0  0  0  0  0  0  0  0  0  0  0  0
    3.6311   -0.9236   -9.1144 C   0  0  0  0  0  0  0  0  0  0  0  0
    2.6153   -1.1192   -8.1756 C   0  0  0  0  0  0  0  0  0  0  0  0
    1.5854   -2.0415   -8.4129 C   0  0  0  0  0  0  0  0  0  0  0  0
    0.5569   -2.2485   -7.4790 C   0  0  0  0  0  0  0  0  0  0  0  0
   -0.4599   -3.1711   -7.7303 C   0  0  0  0  0  0  0  0  0  0  0  0
   -0.4613   -3.8979   -8.9170 C   0  0  0  0  0  0  0  0  0  0  0  0
    0.5540   -3.7036   -9.8551 C   0  0  0  0  0  0  0  0  0  0  0  0
    1.5843   -2.7790   -9.6178 C   0  0  0  0  0  0  0  0  0  0  0  0
    2.6134   -2.5713  -10.5522 C   0  0  0  0  0  0  0  0  0  0  0  0
    4.7315   -1.4289  -11.3313 C   0  0  0  0  0  0  0  0  0  0  0  0
    5.0757   -2.6788  -12.1506 C   0  0  0  0  0  0  0  0  0  0  0  0
    5.3525   -2.4350  -13.6394 C   0  0  0  0  0  0  0  0  0  0  0  0
    4.3167   -3.0821  -14.5650 C   0  0  0  0  0  0  0  0  0  0  0  0
    4.8501   -4.3484  -15.2362 C   0  0  0  0  0  0  0  0  0  0  0  0
    4.2423   -5.0434  -17.5035 O   0  0  0  0  0  0  0  0  0  0  0  0
    3.9527   -4.8522  -16.3353 C   0  0  0  0  0  0  0  0  0  0  0  0
    2.6950   -5.0634  -15.8992 O   0  0  0  0  0  0  0  0  0  0  0  0
    2.4798   -4.9141  -14.9996 H   0  0  0  0  0  0  0  0  0  0  0  0
 16 17  2  0  0  0
 17 18  1  0  0  0
 17 15  1  0  0  0
 15 14  1  0  0  0
 14 13  1  0  0  0
 13 12  1  0  0  0
 12 11  1  0  0  0
 11  1  1  0  0  0
  1  2  2  0  0  0
  2  3  1  0  0  0
  3  4  2  0  0  0
  4  5  1  0  0  0
  5  6  2  0  0  0
  6  7  1  0  0  0
  7  8  2  0  0  0
  8  9  1  0  0  0
  9 10  2  0  0  0
 10  1  1  0  0  0
  9  4  1  0  0  0
 18 19  1  0  0  0
M  END
> <minimizedAffinity>
-6.24359

$$$$
bridge_LYS46_TYR49_carboxylic_acid_pentylene_naphthalene


 19 20  0  0  0  0  0  0  0  0999 V2000
    3.7644   -1.7011  -10.1728 C   0  0  0  0  0  0  0  0  0  0  0  0
    3.6714   -0.9409   -9.0028 C   0  0  0  0  0  0  0  0  0  0  0  0
    2.5932   -1.1099   -8.1309 C   0  0  0  0  0  0  0  0  0  0  0  0
    1.5847   -2.0447   -8.4080 C   0  0  0  0  0  0  0  0  0  0  0  0
    0.4942   -2.2254   -7.5414 C   0  0  0  0  0  0  0  0  0  0  0  0
   -0.5003   -3.1608   -7.8316 C   0  0  0  0  0  0  0  0  0  0  0  0
   -0.4172   -3.9269   -8.9905 C   0  0  0  0  0  0  0  0  0  0  0  0
    0.6605   -3.7591   -9.8616 C   0  0  0  0  0  0  0  0  0  0  0  0
    1.6694   -2.8220   -9.5846 C   0  0  0  0  0  0  0  0  0  0  0  0
    2.7605   -2.6406  -10.4516 C   0  0  0  0  0  0  0  0  0  0  0  0
    4.9248   -1.5145  -11.1196 C   0  0  0  0  0  0  0  0  0  0  0  0
    4.5114   -1.1226  -12.5435 C   0  0  0  0  0  0  0  0  0  0  0  0
    4.0065    0.3160  -12.7105 C   0  0  0  0  0  0  0  0  0  0  0  0
    2.6561    0.4076  -13.4289 C   0  0  0  0  0  0  0  0  0  0  0  0
    1.4848    0.0636  -12.5078 C   0  0  0  0  0  0  0  0  0  0  0  0
    1.6104    1.3762  -10.4452 O   0  0  0  0  0  0  0  0  0  0  0  0
    1.1431    1.1765  -11.5528 C   0  0  0  0  0  0  0  0  0  0  0  0
    0.1810    1.9821  -12.0446 O   0  0  0  0  0  0  0  0  0  0  0  0
   -0.1734    1.8222  -12.8971 H   0  0  0  0  0  0  0  0  0  0  0  0
 16 17  2  0  0  0
 17 18  1  0  0  0
 17 15  1  0  0  0
 15 14  1  0  0  0
 14 13  1  0  0  0
 13 12  1  0  0  0
 12 11  1  0  0  0
 11  1  1  0  0  0
  1  2  2  0  0  0
  2  3  1  0  0  0
  3  4  2  0  0  0
  4  5  1  0  0  0
  5  6  2  0  0  0
  6  7  1  0  0  0
  7  8  2  0  0  0
  8  9  1  0  0  0
  9 10  2  0  0  0
 10  1  1  0  0  0
  9  4  1  0  0  0
 18 19  1  0  0  0
M  END
> <minimizedAffinity>
-6.21659

$$$$
