bridge_LYS46_TYR49_carboxylic_acid_hexylene_naphthalene


 20 21  0  0  0  0  0  0  0  0999 V2000
    4.6174    0.0312   -8.9003 C   0  0  0  0  0  0  0  0  0  0  0  0
    3.5078   -0.9640   -9.1379 C   0  0  0  0  0  0  0  0  0  0  0  0
    3.4454   -1.6880  -10.3324 C   0  0  0  0  0  0  0  0  0  0  0  0
    2.4090   -2.5974  -10.5561 C   0  0  0  0  0  0  0  0  0  0  0  0
    1.4124   -2.8032   -9.5903 C   0  0  0  0  0  0  0  0  0  0  0  0
    0.3634   -3.7128   -9.8018 C   0  0  0  0  0  0  0  0  0  0  0  0
   -0.6203   -3.9057   -8.8305 C   0  0  0  0  0  0  0  0  0  0  0  0
   -0.5677   -3.1925   -7.6366 C   0  0  0  0  0  0  0  0  0  0  0  0
    0.4687   -2.2850   -7.4114 C   0  0  0  0  0  0  0  0  0  0  0  0
    1.4663   -2.0790   -8.3785 C   0  0  0  0  0  0  0  0  0  0  0  0
    2.5155   -1.1684   -8.1676 C   0  0  0  0  0  0  0  0  0  0  0  0
    4.1774    1.2547   -8.0868 C   0  0  0  0  0  0  0  0  0  0  0  0
    4.6906    2.5742   -8.6729 C   0  0  0  0  0  0  0  0  0  0  0  0
    5.2150    3.5467   -7.6119 C   0  0  0  0  0  0  0  0  0  0  0  0
    5.1796    3.0418   -6.1634 C   0  0  0  0  0  0  0  0  0  0  0  0
    6.5317    2.6253   -5.5837 C   0  0  0  0  0  0  0  0  0  0  0  0
    6.3951    0.7366   -4.0325 O   0  0  0  0  0  0  0  0  0  0  0  0
    6.5717    1.1836   -5.1525 C   0  0  0  0  0  0  0  0  0  0  0  0
    6.8775    0.3617   -6.1755 O   0  0  0  0  0  0  0  0  0  0  0  0
    7.0119    0.7123   -7.0340 H   0  0  0  0  0  0  0  0  0  0  0  0
 17 18  2  0  0  0
 18 19  1  0  0  0
 18 16  1  0  0  0
 16 15  1  0  0  0
 15 14  1  0  0  0
 14 13  1  0  0  0
 13 12  1  0  0  0
 12  1  1  0  0  0
  1  2  1  0  0  0
  2  3  2  0  0  0
  3  4  1  0  0  0
  4  5  2  0  0  0
  5  6  1  0  0  0
  6  7  2  0  0  0
  7  8  1  0  0  0
  8  9  2  0  0  0
  9 10  1  0  0  0
 10 11  2  0  0  0
 11  2  1  0  0  0
 10  5  1  0  0  0
 19 20  1  0  0  0
M  END
> <minimizedAffinity>
-6.70001

$$$$
bridge_LYS46_TYR49_carboxylic_acid_hexylene_naphthalene


 20 21  0  0  0  0  0  0  0  0999 V2000
    4.8485   -0.9127  -10.9286 C   0  0  0  0  0  0  0  0  0  0  0  0
    4.7760    0.3027  -10.0367 C   0  0  0  0  0  0  0  0  0  0  0  0
    4.2192    1.4967  -10.5051 C   0  0  0  0  0  0  0  0  0  0  0  0
    4.1671    2.6245   -9.6827 C   0  0  0  0  0  0  0  0  0  0  0  0
    4.6704    2.5834   -8.3738 C   0  0  0  0  0  0  0  0  0  0  0  0
    4.6265    3.7097   -7.5360 C   0  0  0  0  0  0  0  0  0  0  0  0
    5.1318    3.6520   -6.2361 C   0  0  0  0  0  0  0  0  0  0  0  0
    5.6866    2.4687   -5.7578 C   0  0  0  0  0  0  0  0  0  0  0  0
    5.7373    1.3406   -6.5783 C   0  0  0  0  0  0  0  0  0  0  0  0
    5.2334    1.3820   -7.8887 C   0  0  0  0  0  0  0  0  0  0  0  0
    5.2778    0.2555   -8.7276 C   0  0  0  0  0  0  0  0  0  0  0  0
    4.2225   -2.1665  -10.3056 C   0  0  0  0  0  0  0  0  0  0  0  0
    2.7384   -2.3251  -10.6523 C   0  0  0  0  0  0  0  0  0  0  0  0
    1.8169   -1.4588   -9.7879 C   0  0  0  0  0  0  0  0  0  0  0  0
    1.9866   -1.6068   -8.2702 C   0  0  0  0  0  0  0  0  0  0  0  0
    1.4519   -2.9107   -7.6772 C   0  0  0  0  0  0  0  0  0  0  0  0
   -0.9882   -3.0980   -7.6248 O   0  0  0  0  0  0  0  0  0  0  0  0
    0.0661   -2.7758   -7.1051 C   0  0  0  0  0  0  0  0  0  0  0  0
    0.0787   -2.1919   -5.8908 O   0  0  0  0  0  0  0  0  0  0  0  0
    0.8929   -1.9468   -5.4972 H   0  0  0  0  0  0  0  0  0  0  0  0
 17 18  2  0  0  0
 18 19  1  0  0  0
 18 16  1  0  0  0
 16 15  1  0  0  0
 15 14  1  0  0  0
 14 13  1  0  0  0
 13 12  1  0  0  0
 12  1  1  0  0  0
  1  2  1  0  0  0
  2  3  2  0  0  0
  3  4  1  0  0  0
  4  5  2  0  0  0
  5  6  1  0  0  0
  6  7  2  0  0  0
  7  8  1  0  0  0
  8  9  2  0  0  0
  9 10  1  0  0  0
 10 11  2  0  0  0
 11  2  1  0  0  0
 10  5  1  0  0  0
 19 20  1  0  0  0
M  END
> <minimizedAffinity>
-6.63740

$$$$
bridge_LYS46_TYR49_carboxylic_acid_hexylene_naphthalene


 20 21  0  0  0  0  0  0  0  0999 V2000
    4.8415   -1.4152  -11.1365 C   0  0  0  0  0  0  0  0  0  0  0  0
    3.6890   -1.6206  -10.1838 C   0  0  0  0  0  0  0  0  0  0  0  0
    3.6049   -0.8826   -8.9993 C   0  0  0  0  0  0  0  0  0  0  0  0
    2.5453   -1.0854   -8.1120 C   0  0  0  0  0  0  0  0  0  0  0  0
    1.5463   -2.0305   -8.3896 C   0  0  0  0  0  0  0  0  0  0  0  0
    0.4761   -2.2467   -7.5063 C   0  0  0  0  0  0  0  0  0  0  0  0
   -0.5096   -3.1910   -7.7975 C   0  0  0  0  0  0  0  0  0  0  0  0
   -0.4381   -3.9303   -8.9744 C   0  0  0  0  0  0  0  0  0  0  0  0
    0.6193   -3.7269   -9.8625 C   0  0  0  0  0  0  0  0  0  0  0  0
    1.6195   -2.7807   -9.5844 C   0  0  0  0  0  0  0  0  0  0  0  0
    2.6909   -2.5647  -10.4676 C   0  0  0  0  0  0  0  0  0  0  0  0
    5.7412   -0.2312  -10.7614 C   0  0  0  0  0  0  0  0  0  0  0  0
    7.0338   -0.6648  -10.0623 C   0  0  0  0  0  0  0  0  0  0  0  0
    7.4791    0.2982   -8.9573 C   0  0  0  0  0  0  0  0  0  0  0  0
    6.7528    0.1582   -7.6130 C   0  0  0  0  0  0  0  0  0  0  0  0
    6.0175    1.4103   -7.1344 C   0  0  0  0  0  0  0  0  0  0  0  0
    6.4574    2.8523   -5.2059 O   0  0  0  0  0  0  0  0  0  0  0  0
    6.2982    1.7471   -5.6943 C   0  0  0  0  0  0  0  0  0  0  0  0
    6.4037    0.6415   -4.9313 O   0  0  0  0  0  0  0  0  0  0  0  0
    6.2800   -0.2050   -5.3135 H   0  0  0  0  0  0  0  0  0  0  0  0
 17 18  2  0  0  0
 18 19  1  0  0  0
 18 16  1  0  0  0
 16 15  1  0  0  0
 15 14  1  0  0  0
 14 13  1  0  0  0
 13 12  1  0  0  0
 12  1  1  0  0  0
  1  2  1  0  0  0
  2  3  2  0  0  0
  3  4  1  0  0  0
  4  5  2  0  0  0
  5  6  1  0  0  0
  6  7  2  0  0  0
  7  8  1  0  0  0
  8  9  2  0  0  0
  9 10  1  0  0  0
 10 11  2  0  0  0
 11  2  1  0  0  0
 10  5  1  0  0  0
 19 20  1  0  0  0
M  END
> <minimizedAffinity>
-6.47280

$$$$
bridge_LYS46_TYR49_carboxylic_acid_hexylene_naphthalene


 20 21  0  0  0  0  0  0  0  0999 V2000
    4.7562    0.1086   -9.0463 C   0  0  0  0  0  0  0  0  0  0  0  0
    3.6447   -0.8835   -9.2875 C   0  0  0  0  0  0  0  0  0  0  0  0
    3.5563   -1.5716  -10.5014 C   0  0  0  0  0  0  0  0  0  0  0  0
    2.5179   -2.4781  -10.7279 C   0  0  0  0  0  0  0  0  0  0  0  0
    1.5452   -2.7167   -9.7454 C   0  0  0  0  0  0  0  0  0  0  0  0
    0.4945   -3.6237   -9.9594 C   0  0  0  0  0  0  0  0  0  0  0  0
   -0.4653   -3.8495   -8.9714 C   0  0  0  0  0  0  0  0  0  0  0  0
   -0.3867   -3.1723   -7.7582 C   0  0  0  0  0  0  0  0  0  0  0  0
    0.6516   -2.2678   -7.5303 C   0  0  0  0  0  0  0  0  0  0  0  0
    1.6254   -2.0289   -8.5140 C   0  0  0  0  0  0  0  0  0  0  0  0
    2.6763   -1.1209   -8.3006 C   0  0  0  0  0  0  0  0  0  0  0  0
    6.1460   -0.4308   -9.4063 C   0  0  0  0  0  0  0  0  0  0  0  0
    7.1799   -0.1959   -8.3000 C   0  0  0  0  0  0  0  0  0  0  0  0
    7.2249    1.2545   -7.8090 C   0  0  0  0  0  0  0  0  0  0  0  0
    6.9784    1.4626   -6.3089 C   0  0  0  0  0  0  0  0  0  0  0  0
    5.5579    1.8852   -5.9329 C   0  0  0  0  0  0  0  0  0  0  0  0
    5.7689    4.3168   -6.1185 O   0  0  0  0  0  0  0  0  0  0  0  0
    5.2094    3.2721   -6.4029 C   0  0  0  0  0  0  0  0  0  0  0  0
    4.1217    3.2744   -7.1983 O   0  0  0  0  0  0  0  0  0  0  0  0
    3.6965    2.4674   -7.4129 H   0  0  0  0  0  0  0  0  0  0  0  0
 17 18  2  0  0  0
 18 19  1  0  0  0
 18 16  1  0  0  0
 16 15  1  0  0  0
 15 14  1  0  0  0
 14 13  1  0  0  0
 13 12  1  0  0  0
 12  1  1  0  0  0
  1  2  1  0  0  0
  2  3  2  0  0  0
  3  4  1  0  0  0
  4  5  2  0  0  0
  5  6  1  0  0  0
  6  7  2  0  0  0
  7  8  1  0  0  0
  8  9  2  0  0  0
  9 10  1  0  0  0
 10 11  2  0  0  0
 11  2  1  0  0  0
 10  5  1  0  0  0
 19 20  1  0  0  0
M  END
> <minimizedAffinity>
-6.45231

$$$$
bridge_LYS46_TYR49_carboxylic_acid_hexylene_naphthalene


 20 21  0  0  0  0  0  0  0  0999 V2000
    4.3325   -1.6303  -11.6985 C   0  0  0  0  0  0  0  0  0  0  0  0
    3.3571   -1.7696  -10.5551 C   0  0  0  0  0  0  0  0  0  0  0  0
    3.5331   -1.0379   -9.3768 C   0  0  0  0  0  0  0  0  0  0  0  0
    2.6374   -1.1799   -8.3143 C   0  0  0  0  0  0  0  0  0  0  0  0
    1.5460   -2.0566   -8.4068 C   0  0  0  0  0  0  0  0  0  0  0  0
    0.6382   -2.2112   -7.3463 C   0  0  0  0  0  0  0  0  0  0  0  0
   -0.4425   -3.0878   -7.4545 C   0  0  0  0  0  0  0  0  0  0  0  0
   -0.6295   -3.8200   -8.6231 C   0  0  0  0  0  0  0  0  0  0  0  0
    0.2639   -3.6772   -9.6860 C   0  0  0  0  0  0  0  0  0  0  0  0
    1.3566   -2.7996   -9.5933 C   0  0  0  0  0  0  0  0  0  0  0  0
    2.2655   -2.6452  -10.6538 C   0  0  0  0  0  0  0  0  0  0  0  0
    5.5298   -2.5836  -11.6004 C   0  0  0  0  0  0  0  0  0  0  0  0
    6.8656   -1.8474  -11.4544 C   0  0  0  0  0  0  0  0  0  0  0  0
    7.2635   -1.5945   -9.9969 C   0  0  0  0  0  0  0  0  0  0  0  0
    6.9831   -0.1847   -9.4601 C   0  0  0  0  0  0  0  0  0  0  0  0
    7.4196    0.0631   -8.0159 C   0  0  0  0  0  0  0  0  0  0  0  0
    5.4154    1.3883   -7.5478 O   0  0  0  0  0  0  0  0  0  0  0  0
    6.3437    0.6933   -7.1726 C   0  0  0  0  0  0  0  0  0  0  0  0
    6.5200    0.4391   -5.8611 O   0  0  0  0  0  0  0  0  0  0  0  0
    7.2358   -0.0961   -5.5798 H   0  0  0  0  0  0  0  0  0  0  0  0
 17 18  2  0  0  0
 18 19  1  0  0  0
 18 16  1  0  0  0
 16 15  1  0  0  0
 15 14  1  0  0  0
 14 13  1  0  0  0
 13 12  1  0  0  0
 12  1  1  0  0  0
  1  2  1  0  0  0
  2  3  2  0  0  0
  3  4  1  0  0  0
  4  5  2  0  0  0
  5  6  1  0  0  0
  6  7  2  0  0  0
  7  8  1  0  0  0
  8  9  2  0  0  0
  9 10  1  0  0  0
 10 11  2  0  0  0
 11  2  1  0  0  0
 10  5  1  0  0  0
 19 20  1  0  0  0
M  END
> <minimizedAffinity>
-6.44896

$$$$
bridge_LYS46_TYR49_carboxylic_acid_hexylene_naphthalene


 20 21  0  0  0  0  0  0  0  0999 V2000
    4.0960   -0.2866   -9.2502 C   0  0  0  0  0  0  0  0  0  0  0  0
    4.5472    1.0486   -8.7101 C   0  0  0  0  0  0  0  0  0  0  0  0
    4.9540    1.1766   -7.3786 C   0  0  0  0  0  0  0  0  0  0  0  0
    5.3567    2.4165   -6.8770 C   0  0  0  0  0  0  0  0  0  0  0  0
    5.3617    3.5557   -7.6959 C   0  0  0  0  0  0  0  0  0  0  0  0
    5.7623    4.8093   -7.2053 C   0  0  0  0  0  0  0  0  0  0  0  0
    5.7613    5.9329   -8.0333 C   0  0  0  0  0  0  0  0  0  0  0  0
    5.3606    5.8177   -9.3611 C   0  0  0  0  0  0  0  0  0  0  0  0
    4.9599    4.5786   -9.8636 C   0  0  0  0  0  0  0  0  0  0  0  0
    4.9548    3.4382   -9.0436 C   0  0  0  0  0  0  0  0  0  0  0  0
    4.5534    2.1840   -9.5339 C   0  0  0  0  0  0  0  0  0  0  0  0
    2.8530   -0.8431   -8.5450 C   0  0  0  0  0  0  0  0  0  0  0  0
    1.7833   -1.3350   -9.5255 C   0  0  0  0  0  0  0  0  0  0  0  0
    1.6724   -2.8616   -9.5877 C   0  0  0  0  0  0  0  0  0  0  0  0
    1.1547   -3.5486   -8.3171 C   0  0  0  0  0  0  0  0  0  0  0  0
   -0.3375   -3.3670   -8.0381 C   0  0  0  0  0  0  0  0  0  0  0  0
   -1.5566   -3.4527   -5.9172 O   0  0  0  0  0  0  0  0  0  0  0  0
   -0.6348   -3.0398   -6.5992 C   0  0  0  0  0  0  0  0  0  0  0  0
    0.2475   -2.1564   -6.0924 O   0  0  0  0  0  0  0  0  0  0  0  0
    0.9539   -1.8432   -6.6224 H   0  0  0  0  0  0  0  0  0  0  0  0
 17 18  2  0  0  0
 18 19  1  0  0  0
 18 16  1  0  0  0
 16 15  1  0  0  0
 15 14  1  0  0  0
 14 13  1  0  0  0
 13 12  1  0  0  0
 12  1  1  0  0  0
  1  2  1  0  0  0
  2  3  2  0  0  0
  3  4  1  0  0  0
  4  5  2  0  0  0
  5  6  1  0  0  0
  6  7  2  0  0  0
  7  8  1  0  0  0
  8  9  2  0  0  0
  9 10  1  0  0  0
 10 11  2  0  0  0
 11  2  1  0  0  0
 10  5  1  0  0  0
 19 20  1  0  0  0
M  END
> <minimizedAffinity>
-6.40583

$$$$
bridge_LYS46_TYR49_carboxylic_acid_hexylene_naphthalene


 20 21  0  0  0  0  0  0  0  0999 V2000
    4.8021   -1.5064  -11.2148 C   0  0  0  0  0  0  0  0  0  0  0  0
    3.6678   -1.6780  -10.2341 C   0  0  0  0  0  0  0  0  0  0  0  0
    3.6206   -0.9188   -9.0610 C   0  0  0  0  0  0  0  0  0  0  0  0
    2.5777   -1.0903   -8.1476 C   0  0  0  0  0  0  0  0  0  0  0  0
    1.5589   -2.0247   -8.3873 C   0  0  0  0  0  0  0  0  0  0  0  0
    0.5051   -2.2095   -7.4774 C   0  0  0  0  0  0  0  0  0  0  0  0
   -0.5007   -3.1435   -7.7310 C   0  0  0  0  0  0  0  0  0  0  0  0
   -0.4658   -3.9036   -8.8961 C   0  0  0  0  0  0  0  0  0  0  0  0
    0.5748   -3.7315   -9.8103 C   0  0  0  0  0  0  0  0  0  0  0  0
    1.5948   -2.7961   -9.5702 C   0  0  0  0  0  0  0  0  0  0  0  0
    2.6498   -2.6115  -10.4799 C   0  0  0  0  0  0  0  0  0  0  0  0
    5.3456   -2.8331  -11.7594 C   0  0  0  0  0  0  0  0  0  0  0  0
    5.2037   -2.9542  -13.2802 C   0  0  0  0  0  0  0  0  0  0  0  0
    4.1624   -1.9986  -13.8711 C   0  0  0  0  0  0  0  0  0  0  0  0
    2.8100   -2.6240  -14.2375 C   0  0  0  0  0  0  0  0  0  0  0  0
    2.6668   -3.0628  -15.6951 C   0  0  0  0  0  0  0  0  0  0  0  0
    3.7605   -5.2509  -15.7846 O   0  0  0  0  0  0  0  0  0  0  0  0
    2.7649   -4.5540  -15.8763 C   0  0  0  0  0  0  0  0  0  0  0  0
    1.5783   -5.0985  -16.2096 O   0  0  0  0  0  0  0  0  0  0  0  0
    0.8170   -4.5567  -16.2783 H   0  0  0  0  0  0  0  0  0  0  0  0
 17 18  2  0  0  0
 18 19  1  0  0  0
 18 16  1  0  0  0
 16 15  1  0  0  0
 15 14  1  0  0  0
 14 13  1  0  0  0
 13 12  1  0  0  0
 12  1  1  0  0  0
  1  2  1  0  0  0
  2  3  2  0  0  0
  3  4  1  0  0  0
  4  5  2  0  0  0
  5  6  1  0  0  0
  6  7  2  0  0  0
  7  8  1  0  0  0
  8  9  2  0  0  0
  9 10  1  0  0  0
 10 11  2  0  0  0
 11  2  1  0  0  0
 10  5  1  0  0  0
 19 20  1  0  0  0
M  END
> <minimizedAffinity>
-6.27766

$$$$
bridge_LYS46_TYR49_carboxylic_acid_hexylene_naphthalene


 20 21  0  0  0  0  0  0  0  0999 V2000
    4.8290   -0.0345   -8.8566 C   0  0  0  0  0  0  0  0  0  0  0  0
    3.6936   -0.9849   -9.1495 C   0  0  0  0  0  0  0  0  0  0  0  0
    3.6128   -1.6380  -10.3831 C   0  0  0  0  0  0  0  0  0  0  0  0
    2.5529   -2.5055  -10.6573 C   0  0  0  0  0  0  0  0  0  0  0  0
    1.5504   -2.7392   -9.7039 C   0  0  0  0  0  0  0  0  0  0  0  0
    0.4778   -3.6071   -9.9659 C   0  0  0  0  0  0  0  0  0  0  0  0
   -0.5114   -3.8286   -9.0064 C   0  0  0  0  0  0  0  0  0  0  0  0
   -0.4408   -3.1859   -7.7740 C   0  0  0  0  0  0  0  0  0  0  0  0
    0.6191   -2.3204   -7.4985 C   0  0  0  0  0  0  0  0  0  0  0  0
    1.6225   -2.0865   -8.4531 C   0  0  0  0  0  0  0  0  0  0  0  0
    2.6954   -1.2176   -8.1916 C   0  0  0  0  0  0  0  0  0  0  0  0
    4.4136    1.1694   -8.0022 C   0  0  0  0  0  0  0  0  0  0  0  0
    5.6104    1.9081   -7.3940 C   0  0  0  0  0  0  0  0  0  0  0  0
    6.3382    1.1001   -6.3151 C   0  0  0  0  0  0  0  0  0  0  0  0
    7.8660    1.0352   -6.4421 C   0  0  0  0  0  0  0  0  0  0  0  0
    8.3877    0.3891   -7.7258 C   0  0  0  0  0  0  0  0  0  0  0  0
   10.5112   -0.7369   -7.2623 O   0  0  0  0  0  0  0  0  0  0  0  0
    9.3109   -0.7722   -7.4706 C   0  0  0  0  0  0  0  0  0  0  0  0
    8.6624   -1.9519   -7.5302 O   0  0  0  0  0  0  0  0  0  0  0  0
    7.7395   -1.9715   -7.6907 H   0  0  0  0  0  0  0  0  0  0  0  0
 17 18  2  0  0  0
 18 19  1  0  0  0
 18 16  1  0  0  0
 16 15  1  0  0  0
 15 14  1  0  0  0
 14 13  1  0  0  0
 13 12  1  0  0  0
 12  1  1  0  0  0
  1  2  1  0  0  0
  2  3  2  0  0  0
  3  4  1  0  0  0
  4  5  2  0  0  0
  5  6  1  0  0  0
  6  7  2  0  0  0
  7  8  1  0  0  0
  8  9  2  0  0  0
  9 10  1  0  0  0
 10 11  2  0  0  0
 11  2  1  0  0  0
 10  5  1  0  0  0
 19 20  1  0  0  0
M  END
> <minimizedAffinity>
-6.25413

$$$$
bridge_LYS46_TYR49_carboxylic_acid_hexylene_naphthalene


 20 21  0  0  0  0  0  0  0  0999 V2000
    4.6118   -1.3486  -11.3524 C   0  0  0  0  0  0  0  0  0  0  0  0
    3.5276   -1.5871  -10.3300 C   0  0  0  0  0  0  0  0  0  0  0  0
    3.5438   -0.9126   -9.1053 C   0  0  0  0  0  0  0  0  0  0  0  0
    2.5475   -1.1464   -8.1546 C   0  0  0  0  0  0  0  0  0  0  0  0
    1.5128   -2.0595   -8.4076 C   0  0  0  0  0  0  0  0  0  0  0  0
    0.5053   -2.3062   -7.4607 C   0  0  0  0  0  0  0  0  0  0  0  0
   -0.5171   -3.2181   -7.7281 C   0  0  0  0  0  0  0  0  0  0  0  0
   -0.5453   -3.8940   -8.9443 C   0  0  0  0  0  0  0  0  0  0  0  0
    0.4488   -3.6595   -9.8957 C   0  0  0  0  0  0  0  0  0  0  0  0
    1.4847   -2.7454   -9.6423 C   0  0  0  0  0  0  0  0  0  0  0  0
    2.4934   -2.4989  -10.5890 C   0  0  0  0  0  0  0  0  0  0  0  0
    5.9584   -1.9775  -10.9738 C   0  0  0  0  0  0  0  0  0  0  0  0
    7.1274   -0.9938  -11.0890 C   0  0  0  0  0  0  0  0  0  0  0  0
    8.4750   -1.6784  -11.3376 C   0  0  0  0  0  0  0  0  0  0  0  0
    8.8350   -2.8193  -10.3768 C   0  0  0  0  0  0  0  0  0  0  0  0
    9.9451   -2.5030   -9.3741 C   0  0  0  0  0  0  0  0  0  0  0  0
    9.9889   -0.2743   -8.3628 O   0  0  0  0  0  0  0  0  0  0  0  0
    9.5707   -1.4185   -8.3997 C   0  0  0  0  0  0  0  0  0  0  0  0
    8.6934   -1.8552   -7.4748 O   0  0  0  0  0  0  0  0  0  0  0  0
    8.3760   -2.7361   -7.5093 H   0  0  0  0  0  0  0  0  0  0  0  0
 17 18  2  0  0  0
 18 19  1  0  0  0
 18 16  1  0  0  0
 16 15  1  0  0  0
 15 14  1  0  0  0
 14 13  1  0  0  0
 13 12  1  0  0  0
 12  1  1  0  0  0
  1  2  1  0  0  0
  2  3  2  0  0  0
  3  4  1  0  0  0
  4  5  2  0  0  0
  5  6  1  0  0  0
  6  7  2  0  0  0
  7  8  1  0  0  0
  8  9  2  0  0  0
  9 10  1  0  0  0
 10 11  2  0  0  0
 11  2  1  0  0  0
 10  5  1  0  0  0
 19 20  1  0  0  0
M  END
> <minimizedAffinity>
-6.00627

$$$$
