bridge_LYS48_LEU50_carboxylic_acid_butylene_cyclohexyl


 14 14  0  0  0  0  0  0  0  0999 V2000
    0.3758   -3.6351  -10.0830 C   0  0  0  0  0  0  0  0  0  0  0  0
    0.0736   -3.9352   -8.6118 C   0  0  0  0  0  0  0  0  0  0  0  0
   -0.9329   -2.9707   -7.9938 C   0  0  0  0  0  0  0  0  0  0  0  0
   -1.5551   -3.5397   -5.7139 O   0  0  0  0  0  0  0  0  0  0  0  0
   -0.8165   -2.9671   -6.4969 C   0  0  0  0  0  0  0  0  0  0  0  0
    0.2325   -2.2477   -6.0562 O   0  0  0  0  0  0  0  0  0  0  0  0
    0.7924   -1.8124   -6.6685 H   0  0  0  0  0  0  0  0  0  0  0  0
    1.3119   -2.4361  -10.2726 C   0  0  0  0  0  0  0  0  0  0  0  0
    2.5825   -2.5069   -9.3956 C   0  0  0  0  0  0  0  0  0  0  0  0
    2.6332   -1.3256   -8.4087 C   0  0  0  0  0  0  0  0  0  0  0  0
    2.9643    0.0045   -9.0846 C   0  0  0  0  0  0  0  0  0  0  0  0
    4.2477   -0.0817   -9.9049 C   0  0  0  0  0  0  0  0  0  0  0  0
    4.2172   -1.2413  -10.8962 C   0  0  0  0  0  0  0  0  0  0  0  0
    3.8905   -2.5626  -10.2031 C   0  0  0  0  0  0  0  0  0  0  0  0
  4  5  2  0  0  0
  5  6  1  0  0  0
  5  3  1  0  0  0
  3  2  1  0  0  0
  2  1  1  0  0  0
  1  8  1  0  0  0
  8  9  1  0  0  0
  9 10  1  0  0  0
 10 11  1  0  0  0
 11 12  1  0  0  0
 12 13  1  0  0  0
 13 14  1  0  0  0
 14  9  1  0  0  0
  6  7  1  0  0  0
M  END
> <minimizedAffinity>
-6.31796

$$$$
bridge_LYS48_LEU50_carboxylic_acid_butylene_cyclohexyl


 14 14  0  0  0  0  0  0  0  0999 V2000
    0.7514   -3.2805  -10.0067 C   0  0  0  0  0  0  0  0  0  0  0  0
    0.4058   -3.7201   -8.5808 C   0  0  0  0  0  0  0  0  0  0  0  0
   -0.8394   -3.0382   -8.0244 C   0  0  0  0  0  0  0  0  0  0  0  0
   -1.5447   -3.5308   -5.7509 O   0  0  0  0  0  0  0  0  0  0  0  0
   -0.7856   -2.9733   -6.5253 C   0  0  0  0  0  0  0  0  0  0  0  0
    0.2293   -2.2146   -6.0712 O   0  0  0  0  0  0  0  0  0  0  0  0
    0.8055   -1.7916   -6.6771 H   0  0  0  0  0  0  0  0  0  0  0  0
    2.2192   -2.8699  -10.1707 C   0  0  0  0  0  0  0  0  0  0  0  0
    2.3978   -1.4004  -10.6146 C   0  0  0  0  0  0  0  0  0  0  0  0
    3.8265   -1.1552  -11.1347 C   0  0  0  0  0  0  0  0  0  0  0  0
    4.8719   -1.1267  -10.0202 C   0  0  0  0  0  0  0  0  0  0  0  0
    4.5062   -0.1277   -8.9267 C   0  0  0  0  0  0  0  0  0  0  0  0
    3.0962   -0.3563   -8.3902 C   0  0  0  0  0  0  0  0  0  0  0  0
    2.0644   -0.3764   -9.5163 C   0  0  0  0  0  0  0  0  0  0  0  0
  4  5  2  0  0  0
  5  6  1  0  0  0
  5  3  1  0  0  0
  3  2  1  0  0  0
  2  1  1  0  0  0
  1  8  1  0  0  0
  8  9  1  0  0  0
  9 10  1  0  0  0
 10 11  1  0  0  0
 11 12  1  0  0  0
 12 13  1  0  0  0
 13 14  1  0  0  0
 14  9  1  0  0  0
  6  7  1  0  0  0
M  END
> <minimizedAffinity>
-5.80467

$$$$
bridge_LYS48_LEU50_carboxylic_acid_butylene_cyclohexyl


 14 14  0  0  0  0  0  0  0  0999 V2000
    2.7502   -2.1381  -11.1309 C   0  0  0  0  0  0  0  0  0  0  0  0
    3.3295   -0.7654  -10.7760 C   0  0  0  0  0  0  0  0  0  0  0  0
    4.3886   -0.8224   -9.6805 C   0  0  0  0  0  0  0  0  0  0  0  0
    4.6959    0.3143   -7.5539 O   0  0  0  0  0  0  0  0  0  0  0  0
    4.0014    0.0481   -8.5200 C   0  0  0  0  0  0  0  0  0  0  0  0
    2.7579    0.5503   -8.6357 O   0  0  0  0  0  0  0  0  0  0  0  0
    2.2345    0.3378   -9.3833 H   0  0  0  0  0  0  0  0  0  0  0  0
    1.3847   -2.4001  -10.4854 C   0  0  0  0  0  0  0  0  0  0  0  0
    1.4097   -3.5398   -9.4419 C   0  0  0  0  0  0  0  0  0  0  0  0
    0.0237   -4.2000   -9.3187 C   0  0  0  0  0  0  0  0  0  0  0  0
   -0.9942   -3.3224   -8.5911 C   0  0  0  0  0  0  0  0  0  0  0  0
   -0.4786   -2.8687   -7.2288 C   0  0  0  0  0  0  0  0  0  0  0  0
    0.8913   -2.2040   -7.3271 C   0  0  0  0  0  0  0  0  0  0  0  0
    1.8967   -3.0967   -8.0518 C   0  0  0  0  0  0  0  0  0  0  0  0
  4  5  2  0  0  0
  5  6  1  0  0  0
  5  3  1  0  0  0
  3  2  1  0  0  0
  2  1  1  0  0  0
  1  8  1  0  0  0
  8  9  1  0  0  0
  9 10  1  0  0  0
 10 11  1  0  0  0
 11 12  1  0  0  0
 12 13  1  0  0  0
 13 14  1  0  0  0
 14  9  1  0  0  0
  6  7  1  0  0  0
M  END
> <minimizedAffinity>
-5.46549

$$$$
bridge_LYS48_LEU50_carboxylic_acid_butylene_cyclohexyl


 14 14  0  0  0  0  0  0  0  0999 V2000
    1.8820   -1.3427   -9.5662 C   0  0  0  0  0  0  0  0  0  0  0  0
    2.0904   -1.7981   -8.1188 C   0  0  0  0  0  0  0  0  0  0  0  0
    1.3518   -3.0883   -7.7800 C   0  0  0  0  0  0  0  0  0  0  0  0
   -1.0748   -3.0580   -7.6408 O   0  0  0  0  0  0  0  0  0  0  0  0
    0.0151   -2.7905   -7.1644 C   0  0  0  0  0  0  0  0  0  0  0  0
    0.1148   -2.1760   -5.9709 O   0  0  0  0  0  0  0  0  0  0  0  0
    0.9586   -1.9759   -5.6160 H   0  0  0  0  0  0  0  0  0  0  0  0
    2.6615   -2.1869  -10.5808 C   0  0  0  0  0  0  0  0  0  0  0  0
    3.5236   -1.3421  -11.5460 C   0  0  0  0  0  0  0  0  0  0  0  0
    4.3279   -2.2478  -12.4972 C   0  0  0  0  0  0  0  0  0  0  0  0
    5.4904   -2.9589  -11.8054 C   0  0  0  0  0  0  0  0  0  0  0  0
    6.4037   -1.9758  -11.0796 C   0  0  0  0  0  0  0  0  0  0  0  0
    5.6291   -1.0721  -10.1248 C   0  0  0  0  0  0  0  0  0  0  0  0
    4.4752   -0.3658  -10.8338 C   0  0  0  0  0  0  0  0  0  0  0  0
  4  5  2  0  0  0
  5  6  1  0  0  0
  5  3  1  0  0  0
  3  2  1  0  0  0
  2  1  1  0  0  0
  1  8  1  0  0  0
  8  9  1  0  0  0
  9 10  1  0  0  0
 10 11  1  0  0  0
 11 12  1  0  0  0
 12 13  1  0  0  0
 13 14  1  0  0  0
 14  9  1  0  0  0
  6  7  1  0  0  0
M  END
> <minimizedAffinity>
-5.23511

$$$$
bridge_LYS48_LEU50_carboxylic_acid_butylene_cyclohexyl


 14 14  0  0  0  0  0  0  0  0999 V2000
    1.6721   -1.8522   -9.2731 C   0  0  0  0  0  0  0  0  0  0  0  0
    1.4072   -2.9195   -8.2071 C   0  0  0  0  0  0  0  0  0  0  0  0
   -0.0656   -3.2937   -8.0809 C   0  0  0  0  0  0  0  0  0  0  0  0
   -1.5910   -3.4466   -6.1945 O   0  0  0  0  0  0  0  0  0  0  0  0
   -0.5712   -3.0057   -6.6968 C   0  0  0  0  0  0  0  0  0  0  0  0
    0.2379   -2.1811   -6.0060 O   0  0  0  0  0  0  0  0  0  0  0  0
    1.0187   -1.8493   -6.4038 H   0  0  0  0  0  0  0  0  0  0  0  0
    2.4722   -2.3815  -10.4688 C   0  0  0  0  0  0  0  0  0  0  0  0
    4.0011   -2.3453  -10.2464 C   0  0  0  0  0  0  0  0  0  0  0  0
    4.4532   -0.9503   -9.7757 C   0  0  0  0  0  0  0  0  0  0  0  0
    4.4160    0.0973  -10.8879 C   0  0  0  0  0  0  0  0  0  0  0  0
    5.2050   -0.3513  -12.1142 C   0  0  0  0  0  0  0  0  0  0  0  0
    4.7686   -1.7290  -12.6037 C   0  0  0  0  0  0  0  0  0  0  0  0
    4.8171   -2.7638  -11.4813 C   0  0  0  0  0  0  0  0  0  0  0  0
  4  5  2  0  0  0
  5  6  1  0  0  0
  5  3  1  0  0  0
  3  2  1  0  0  0
  2  1  1  0  0  0
  1  8  1  0  0  0
  8  9  1  0  0  0
  9 10  1  0  0  0
 10 11  1  0  0  0
 11 12  1  0  0  0
 12 13  1  0  0  0
 13 14  1  0  0  0
 14  9  1  0  0  0
  6  7  1  0  0  0
M  END
> <minimizedAffinity>
-5.21719

$$$$
bridge_LYS48_LEU50_carboxylic_acid_butylene_cyclohexyl


 14 14  0  0  0  0  0  0  0  0999 V2000
    3.4273   -0.7166   -8.9158 C   0  0  0  0  0  0  0  0  0  0  0  0
    3.3891   -0.4360  -10.4210 C   0  0  0  0  0  0  0  0  0  0  0  0
    2.8038    0.9293  -10.7655 C   0  0  0  0  0  0  0  0  0  0  0  0
    0.6296    1.6628  -11.5678 O   0  0  0  0  0  0  0  0  0  0  0  0
    1.4602    0.7826  -11.4194 C   0  0  0  0  0  0  0  0  0  0  0  0
    1.2292   -0.4666  -11.8642 O   0  0  0  0  0  0  0  0  0  0  0  0
    1.8759   -1.1339  -11.7438 H   0  0  0  0  0  0  0  0  0  0  0  0
    2.0560   -1.0831   -8.3370 C   0  0  0  0  0  0  0  0  0  0  0  0
    1.9552   -2.5588   -7.8892 C   0  0  0  0  0  0  0  0  0  0  0  0
    2.0025   -3.5042   -9.1039 C   0  0  0  0  0  0  0  0  0  0  0  0
    0.7146   -3.4856   -9.9267 C   0  0  0  0  0  0  0  0  0  0  0  0
   -0.5125   -3.7614   -9.0631 C   0  0  0  0  0  0  0  0  0  0  0  0
   -0.5846   -2.8304   -7.8563 C   0  0  0  0  0  0  0  0  0  0  0  0
    0.7079   -2.8658   -7.0431 C   0  0  0  0  0  0  0  0  0  0  0  0
  4  5  2  0  0  0
  5  6  1  0  0  0
  5  3  1  0  0  0
  3  2  1  0  0  0
  2  1  1  0  0  0
  1  8  1  0  0  0
  8  9  1  0  0  0
  9 10  1  0  0  0
 10 11  1  0  0  0
 11 12  1  0  0  0
 12 13  1  0  0  0
 13 14  1  0  0  0
 14  9  1  0  0  0
  6  7  1  0  0  0
M  END
> <minimizedAffinity>
-5.08744

$$$$
bridge_LYS48_LEU50_carboxylic_acid_butylene_cyclohexyl


 14 14  0  0  0  0  0  0  0  0999 V2000
    2.9298   -1.6116   -9.9837 C   0  0  0  0  0  0  0  0  0  0  0  0
    4.0644   -2.5150  -10.4761 C   0  0  0  0  0  0  0  0  0  0  0  0
    5.2197   -1.7440  -11.1051 C   0  0  0  0  0  0  0  0  0  0  0  0
    4.4388   -1.9011  -13.4017 O   0  0  0  0  0  0  0  0  0  0  0  0
    5.3220   -2.0423  -12.5731 C   0  0  0  0  0  0  0  0  0  0  0  0
    6.5375   -2.4972  -12.9303 O   0  0  0  0  0  0  0  0  0  0  0  0
    7.2075   -2.6012  -12.2836 H   0  0  0  0  0  0  0  0  0  0  0  0
    1.5484   -2.2673  -10.0919 C   0  0  0  0  0  0  0  0  0  0  0  0
    1.3894   -3.5121   -9.1899 C   0  0  0  0  0  0  0  0  0  0  0  0
   -0.0066   -4.1391   -9.3629 C   0  0  0  0  0  0  0  0  0  0  0  0
   -1.1175   -3.3135   -8.7146 C   0  0  0  0  0  0  0  0  0  0  0  0
   -0.8234   -3.0237   -7.2459 C   0  0  0  0  0  0  0  0  0  0  0  0
    0.5528   -2.3944   -7.0506 C   0  0  0  0  0  0  0  0  0  0  0  0
    1.6507   -3.2349   -7.6996 C   0  0  0  0  0  0  0  0  0  0  0  0
  4  5  2  0  0  0
  5  6  1  0  0  0
  5  3  1  0  0  0
  3  2  1  0  0  0
  2  1  1  0  0  0
  1  8  1  0  0  0
  8  9  1  0  0  0
  9 10  1  0  0  0
 10 11  1  0  0  0
 11 12  1  0  0  0
 12 13  1  0  0  0
 13 14  1  0  0  0
 14  9  1  0  0  0
  6  7  1  0  0  0
M  END
> <minimizedAffinity>
-5.02091

$$$$
bridge_LYS48_LEU50_carboxylic_acid_butylene_cyclohexyl


 14 14  0  0  0  0  0  0  0  0999 V2000
    3.1060    0.3690   -9.2918 C   0  0  0  0  0  0  0  0  0  0  0  0
    4.5031   -0.0380   -8.8139 C   0  0  0  0  0  0  0  0  0  0  0  0
    5.0699    0.8911   -7.7460 C   0  0  0  0  0  0  0  0  0  0  0  0
    7.3509    0.1183   -8.0758 O   0  0  0  0  0  0  0  0  0  0  0  0
    6.4439    0.4500   -7.3315 C   0  0  0  0  0  0  0  0  0  0  0  0
    6.6139    0.4558   -5.9962 O   0  0  0  0  0  0  0  0  0  0  0  0
    5.9087    0.7129   -5.4353 H   0  0  0  0  0  0  0  0  0  0  0  0
    2.0087   -0.6006   -8.8382 C   0  0  0  0  0  0  0  0  0  0  0  0
    2.4819   -2.0700   -8.7661 C   0  0  0  0  0  0  0  0  0  0  0  0
    2.3604   -2.7526  -10.1413 C   0  0  0  0  0  0  0  0  0  0  0  0
    0.9146   -3.0562  -10.5326 C   0  0  0  0  0  0  0  0  0  0  0  0
    0.1935   -3.8598   -9.4547 C   0  0  0  0  0  0  0  0  0  0  0  0
    0.2939   -3.1981   -8.0834 C   0  0  0  0  0  0  0  0  0  0  0  0
    1.7452   -2.9070   -7.7065 C   0  0  0  0  0  0  0  0  0  0  0  0
  4  5  2  0  0  0
  5  6  1  0  0  0
  5  3  1  0  0  0
  3  2  1  0  0  0
  2  1  1  0  0  0
  1  8  1  0  0  0
  8  9  1  0  0  0
  9 10  1  0  0  0
 10 11  1  0  0  0
 11 12  1  0  0  0
 12 13  1  0  0  0
 13 14  1  0  0  0
 14  9  1  0  0  0
  6  7  1  0  0  0
M  END
> <minimizedAffinity>
-4.96627

$$$$
bridge_LYS48_LEU50_carboxylic_acid_butylene_cyclohexyl


 14 14  0  0  0  0  0  0  0  0999 V2000
    3.4338   -0.6108   -8.6800 C   0  0  0  0  0  0  0  0  0  0  0  0
    3.8672   -0.8521  -10.1291 C   0  0  0  0  0  0  0  0  0  0  0  0
    5.2765   -1.4214  -10.2504 C   0  0  0  0  0  0  0  0  0  0  0  0
    7.0536   -0.6002   -8.8094 O   0  0  0  0  0  0  0  0  0  0  0  0
    6.2932   -0.4372   -9.7484 C   0  0  0  0  0  0  0  0  0  0  0  0
    6.3101    0.7053  -10.4600 O   0  0  0  0  0  0  0  0  0  0  0  0
    5.7204    0.8179  -11.1794 H   0  0  0  0  0  0  0  0  0  0  0  0
    1.9940   -1.0566   -8.4004 C   0  0  0  0  0  0  0  0  0  0  0  0
    1.8942   -2.5027   -7.8645 C   0  0  0  0  0  0  0  0  0  0  0  0
    1.9617   -3.5203   -9.0186 C   0  0  0  0  0  0  0  0  0  0  0  0
    0.6848   -3.5588   -9.8574 C   0  0  0  0  0  0  0  0  0  0  0  0
   -0.5523   -3.7880   -8.9944 C   0  0  0  0  0  0  0  0  0  0  0  0
   -0.6446   -2.7856   -7.8477 C   0  0  0  0  0  0  0  0  0  0  0  0
    0.6372   -2.7643   -7.0174 C   0  0  0  0  0  0  0  0  0  0  0  0
  4  5  2  0  0  0
  5  6  1  0  0  0
  5  3  1  0  0  0
  3  2  1  0  0  0
  2  1  1  0  0  0
  1  8  1  0  0  0
  8  9  1  0  0  0
  9 10  1  0  0  0
 10 11  1  0  0  0
 11 12  1  0  0  0
 12 13  1  0  0  0
 13 14  1  0  0  0
 14  9  1  0  0  0
  6  7  1  0  0  0
M  END
> <minimizedAffinity>
-4.75653

$$$$
