bridge_LYS48_LEU50_carboxylic_acid_butylene_phenyl


 14 14  0  0  0  0  0  0  0  0999 V2000
    0.7654   -3.3864   -9.6013 C   0  0  0  0  0  0  0  0  0  0  0  0
   -0.4039   -3.8968   -8.7552 C   0  0  0  0  0  0  0  0  0  0  0  0
   -1.1053   -2.7943   -7.9628 C   0  0  0  0  0  0  0  0  0  0  0  0
   -1.5196   -3.5795   -5.6818 O   0  0  0  0  0  0  0  0  0  0  0  0
   -0.8649   -2.9366   -6.4836 C   0  0  0  0  0  0  0  0  0  0  0  0
    0.2098   -2.2299   -6.0809 O   0  0  0  0  0  0  0  0  0  0  0  0
    0.7077   -1.7383   -6.7042 H   0  0  0  0  0  0  0  0  0  0  0  0
    2.1069   -3.4240   -8.8644 C   0  0  0  0  0  0  0  0  0  0  0  0
    2.9234   -2.1849   -9.1367 C   0  0  0  0  0  0  0  0  0  0  0  0
    3.9027   -2.1852  -10.1388 C   0  0  0  0  0  0  0  0  0  0  0  0
    4.6690   -1.0436  -10.3791 C   0  0  0  0  0  0  0  0  0  0  0  0
    4.4668    0.1061   -9.6179 C   0  0  0  0  0  0  0  0  0  0  0  0
    3.4999    0.1148   -8.6144 C   0  0  0  0  0  0  0  0  0  0  0  0
    2.7327   -1.0258   -8.3725 C   0  0  0  0  0  0  0  0  0  0  0  0
  4  5  2  0  0  0
  5  6  1  0  0  0
  5  3  1  0  0  0
  3  2  1  0  0  0
  2  1  1  0  0  0
  1  8  1  0  0  0
  8  9  1  0  0  0
  9 10  2  0  0  0
 10 11  1  0  0  0
 11 12  2  0  0  0
 12 13  1  0  0  0
 13 14  2  0  0  0
 14  9  1  0  0  0
  6  7  1  0  0  0
M  END
> <minimizedAffinity>
-6.31559

$$$$
bridge_LYS48_LEU50_carboxylic_acid_butylene_phenyl


 14 14  0  0  0  0  0  0  0  0999 V2000
    1.3095   -2.7590   -9.6546 C   0  0  0  0  0  0  0  0  0  0  0  0
    0.7900   -3.5869   -8.4763 C   0  0  0  0  0  0  0  0  0  0  0  0
   -0.6276   -3.2092   -8.0485 C   0  0  0  0  0  0  0  0  0  0  0  0
   -1.5504   -3.5002   -5.8002 O   0  0  0  0  0  0  0  0  0  0  0  0
   -0.7249   -3.0217   -6.5580 C   0  0  0  0  0  0  0  0  0  0  0  0
    0.2423   -2.2070   -6.0918 O   0  0  0  0  0  0  0  0  0  0  0  0
    0.8732   -1.8434   -6.6815 H   0  0  0  0  0  0  0  0  0  0  0  0
    2.1609   -1.5617   -9.2238 C   0  0  0  0  0  0  0  0  0  0  0  0
    3.5511   -1.6325   -9.8057 C   0  0  0  0  0  0  0  0  0  0  0  0
    4.5403   -0.7293   -9.3947 C   0  0  0  0  0  0  0  0  0  0  0  0
    5.8216   -0.7850   -9.9456 C   0  0  0  0  0  0  0  0  0  0  0  0
    6.1243   -1.7399  -10.9145 C   0  0  0  0  0  0  0  0  0  0  0  0
    5.1458   -2.6386  -11.3350 C   0  0  0  0  0  0  0  0  0  0  0  0
    3.8639   -2.5844  -10.7853 C   0  0  0  0  0  0  0  0  0  0  0  0
  4  5  2  0  0  0
  5  6  1  0  0  0
  5  3  1  0  0  0
  3  2  1  0  0  0
  2  1  1  0  0  0
  1  8  1  0  0  0
  8  9  1  0  0  0
  9 10  2  0  0  0
 10 11  1  0  0  0
 11 12  2  0  0  0
 12 13  1  0  0  0
 13 14  2  0  0  0
 14  9  1  0  0  0
  6  7  1  0  0  0
M  END
> <minimizedAffinity>
-5.83302

$$$$
bridge_LYS48_LEU50_carboxylic_acid_butylene_phenyl


 14 14  0  0  0  0  0  0  0  0999 V2000
    3.0192   -1.9798  -10.9440 C   0  0  0  0  0  0  0  0  0  0  0  0
    3.5055   -0.5623  -10.6311 C   0  0  0  0  0  0  0  0  0  0  0  0
    4.5853   -0.5166   -9.5507 C   0  0  0  0  0  0  0  0  0  0  0  0
    4.7926    0.5691   -7.3669 O   0  0  0  0  0  0  0  0  0  0  0  0
    4.1845    0.3731   -8.4044 C   0  0  0  0  0  0  0  0  0  0  0  0
    2.9989    0.9738   -8.6278 O   0  0  0  0  0  0  0  0  0  0  0  0
    2.5379    0.8174   -9.4284 H   0  0  0  0  0  0  0  0  0  0  0  0
    3.1106   -2.9289   -9.7460 C   0  0  0  0  0  0  0  0  0  0  0  0
    1.7944   -3.0267   -9.0152 C   0  0  0  0  0  0  0  0  0  0  0  0
    0.7036   -3.6830   -9.6006 C   0  0  0  0  0  0  0  0  0  0  0  0
   -0.5186   -3.7587   -8.9307 C   0  0  0  0  0  0  0  0  0  0  0  0
   -0.6630   -3.1759   -7.6731 C   0  0  0  0  0  0  0  0  0  0  0  0
    0.4137   -2.5152   -7.0849 C   0  0  0  0  0  0  0  0  0  0  0  0
    1.6368   -2.4383   -7.7532 C   0  0  0  0  0  0  0  0  0  0  0  0
  4  5  2  0  0  0
  5  6  1  0  0  0
  5  3  1  0  0  0
  3  2  1  0  0  0
  2  1  1  0  0  0
  1  8  1  0  0  0
  8  9  1  0  0  0
  9 10  2  0  0  0
 10 11  1  0  0  0
 11 12  2  0  0  0
 12 13  1  0  0  0
 13 14  2  0  0  0
 14  9  1  0  0  0
  6  7  1  0  0  0
M  END
> <minimizedAffinity>
-5.75577

$$$$
bridge_LYS48_LEU50_carboxylic_acid_butylene_phenyl


 14 14  0  0  0  0  0  0  0  0999 V2000
    1.4806   -2.2133   -9.3304 C   0  0  0  0  0  0  0  0  0  0  0  0
    1.0773   -3.3007   -8.3311 C   0  0  0  0  0  0  0  0  0  0  0  0
   -0.4185   -3.3122   -8.0188 C   0  0  0  0  0  0  0  0  0  0  0  0
   -1.5852   -3.4811   -5.8737 O   0  0  0  0  0  0  0  0  0  0  0  0
   -0.6824   -3.0388   -6.5621 C   0  0  0  0  0  0  0  0  0  0  0  0
    0.2233   -2.1878   -6.0405 O   0  0  0  0  0  0  0  0  0  0  0  0
    0.9144   -1.8525   -6.5770 H   0  0  0  0  0  0  0  0  0  0  0  0
    2.7447   -2.5583  -10.1223 C   0  0  0  0  0  0  0  0  0  0  0  0
    3.8852   -1.6335   -9.7754 C   0  0  0  0  0  0  0  0  0  0  0  0
    3.7201   -0.6335   -8.8079 C   0  0  0  0  0  0  0  0  0  0  0  0
    4.7707    0.2322   -8.4994 C   0  0  0  0  0  0  0  0  0  0  0  0
    5.9930    0.1094   -9.1574 C   0  0  0  0  0  0  0  0  0  0  0  0
    6.1655   -0.8776  -10.1259 C   0  0  0  0  0  0  0  0  0  0  0  0
    5.1161   -1.7442  -10.4359 C   0  0  0  0  0  0  0  0  0  0  0  0
  4  5  2  0  0  0
  5  6  1  0  0  0
  5  3  1  0  0  0
  3  2  1  0  0  0
  2  1  1  0  0  0
  1  8  1  0  0  0
  8  9  1  0  0  0
  9 10  2  0  0  0
 10 11  1  0  0  0
 11 12  2  0  0  0
 12 13  1  0  0  0
 13 14  2  0  0  0
 14  9  1  0  0  0
  6  7  1  0  0  0
M  END
> <minimizedAffinity>
-5.66036

$$$$
bridge_LYS48_LEU50_carboxylic_acid_butylene_phenyl


 14 14  0  0  0  0  0  0  0  0999 V2000
    3.7306   -1.1613   -9.3550 C   0  0  0  0  0  0  0  0  0  0  0  0
    3.4764   -0.0329  -10.3579 C   0  0  0  0  0  0  0  0  0  0  0  0
    2.1981    0.7546  -10.0730 C   0  0  0  0  0  0  0  0  0  0  0  0
    0.6255    1.7300  -11.6751 O   0  0  0  0  0  0  0  0  0  0  0  0
    1.2911    0.7915  -11.2739 C   0  0  0  0  0  0  0  0  0  0  0  0
    1.2600   -0.3940  -11.9143 O   0  0  0  0  0  0  0  0  0  0  0  0
    1.7750   -1.1105  -11.5990 H   0  0  0  0  0  0  0  0  0  0  0  0
    3.1344   -2.5028   -9.7898 C   0  0  0  0  0  0  0  0  0  0  0  0
    1.8229   -2.7769   -9.0961 C   0  0  0  0  0  0  0  0  0  0  0  0
    0.7837   -3.4288   -9.7730 C   0  0  0  0  0  0  0  0  0  0  0  0
   -0.4351   -3.6673   -9.1358 C   0  0  0  0  0  0  0  0  0  0  0  0
   -0.6277   -3.2529   -7.8192 C   0  0  0  0  0  0  0  0  0  0  0  0
    0.3973   -2.5978   -7.1392 C   0  0  0  0  0  0  0  0  0  0  0  0
    1.6167   -2.3583   -7.7747 C   0  0  0  0  0  0  0  0  0  0  0  0
  4  5  2  0  0  0
  5  6  1  0  0  0
  5  3  1  0  0  0
  3  2  1  0  0  0
  2  1  1  0  0  0
  1  8  1  0  0  0
  8  9  1  0  0  0
  9 10  2  0  0  0
 10 11  1  0  0  0
 11 12  2  0  0  0
 12 13  1  0  0  0
 13 14  2  0  0  0
 14  9  1  0  0  0
  6  7  1  0  0  0
M  END
> <minimizedAffinity>
-5.53791

$$$$
bridge_LYS48_LEU50_carboxylic_acid_butylene_phenyl


 14 14  0  0  0  0  0  0  0  0999 V2000
    3.5538   -1.5051   -9.6884 C   0  0  0  0  0  0  0  0  0  0  0  0
    3.4794   -0.8960  -11.0909 C   0  0  0  0  0  0  0  0  0  0  0  0
    2.7632   -1.7898  -12.1027 C   0  0  0  0  0  0  0  0  0  0  0  0
    0.4505   -1.9263  -12.8925 O   0  0  0  0  0  0  0  0  0  0  0  0
    1.3634   -1.3073  -12.3746 C   0  0  0  0  0  0  0  0  0  0  0  0
    1.1887   -0.0302  -11.9809 O   0  0  0  0  0  0  0  0  0  0  0  0
    1.8961    0.4384  -11.5835 H   0  0  0  0  0  0  0  0  0  0  0  0
    3.0280   -2.9416   -9.6241 C   0  0  0  0  0  0  0  0  0  0  0  0
    1.6912   -3.0116   -8.9282 C   0  0  0  0  0  0  0  0  0  0  0  0
    1.5251   -2.4589   -7.6514 C   0  0  0  0  0  0  0  0  0  0  0  0
    0.2924   -2.5385   -7.0013 C   0  0  0  0  0  0  0  0  0  0  0  0
   -0.7829   -3.1745   -7.6187 C   0  0  0  0  0  0  0  0  0  0  0  0
   -0.6264   -3.7333   -8.8857 C   0  0  0  0  0  0  0  0  0  0  0  0
    0.6055   -3.6548   -9.5374 C   0  0  0  0  0  0  0  0  0  0  0  0
  4  5  2  0  0  0
  5  6  1  0  0  0
  5  3  1  0  0  0
  3  2  1  0  0  0
  2  1  1  0  0  0
  1  8  1  0  0  0
  8  9  1  0  0  0
  9 10  2  0  0  0
 10 11  1  0  0  0
 11 12  2  0  0  0
 12 13  1  0  0  0
 13 14  2  0  0  0
 14  9  1  0  0  0
  6  7  1  0  0  0
M  END
> <minimizedAffinity>
-5.52949

$$$$
bridge_LYS48_LEU50_carboxylic_acid_butylene_phenyl


 14 14  0  0  0  0  0  0  0  0999 V2000
    3.4084   -0.3767   -8.3896 C   0  0  0  0  0  0  0  0  0  0  0  0
    4.7744    0.2681   -8.6383 C   0  0  0  0  0  0  0  0  0  0  0  0
    5.0936    1.4048   -7.6681 C   0  0  0  0  0  0  0  0  0  0  0  0
    5.9625    1.3299   -5.3811 O   0  0  0  0  0  0  0  0  0  0  0  0
    5.9664    0.9368   -6.5344 C   0  0  0  0  0  0  0  0  0  0  0  0
    6.8310   -0.0186   -6.9298 O   0  0  0  0  0  0  0  0  0  0  0  0
    6.8272   -0.3151   -7.8186 H   0  0  0  0  0  0  0  0  0  0  0  0
    3.1397   -1.5891   -9.2852 C   0  0  0  0  0  0  0  0  0  0  0  0
    1.8584   -2.2876   -8.9023 C   0  0  0  0  0  0  0  0  0  0  0  0
    1.1895   -3.1016   -9.8260 C   0  0  0  0  0  0  0  0  0  0  0  0
   -0.0046   -3.7343   -9.4763 C   0  0  0  0  0  0  0  0  0  0  0  0
   -0.5427   -3.5558   -8.2033 C   0  0  0  0  0  0  0  0  0  0  0  0
    0.1113   -2.7430   -7.2794 C   0  0  0  0  0  0  0  0  0  0  0  0
    1.3054   -2.1094   -7.6271 C   0  0  0  0  0  0  0  0  0  0  0  0
  4  5  2  0  0  0
  5  6  1  0  0  0
  5  3  1  0  0  0
  3  2  1  0  0  0
  2  1  1  0  0  0
  1  8  1  0  0  0
  8  9  1  0  0  0
  9 10  2  0  0  0
 10 11  1  0  0  0
 11 12  2  0  0  0
 12 13  1  0  0  0
 13 14  2  0  0  0
 14  9  1  0  0  0
  6  7  1  0  0  0
M  END
> <minimizedAffinity>
-5.26509

$$$$
bridge_LYS48_LEU50_carboxylic_acid_butylene_phenyl


 14 14  0  0  0  0  0  0  0  0999 V2000
    2.6948   -1.2261   -9.1541 C   0  0  0  0  0  0  0  0  0  0  0  0
    1.9281   -1.6126   -7.8867 C   0  0  0  0  0  0  0  0  0  0  0  0
    1.0295   -2.8348   -8.0709 C   0  0  0  0  0  0  0  0  0  0  0  0
   -1.3502   -3.0064   -7.5243 O   0  0  0  0  0  0  0  0  0  0  0  0
   -0.2012   -2.7525   -7.2079 C   0  0  0  0  0  0  0  0  0  0  0  0
    0.0887   -2.3292   -5.9616 O   0  0  0  0  0  0  0  0  0  0  0  0
    0.9750   -2.1362   -5.7267 H   0  0  0  0  0  0  0  0  0  0  0  0
    2.1314   -1.8723  -10.4226 C   0  0  0  0  0  0  0  0  0  0  0  0
    3.2209   -2.1724  -11.4222 C   0  0  0  0  0  0  0  0  0  0  0  0
    2.9952   -1.9959  -12.7938 C   0  0  0  0  0  0  0  0  0  0  0  0
    3.9982   -2.2895  -13.7190 C   0  0  0  0  0  0  0  0  0  0  0  0
    5.2331   -2.7659  -13.2827 C   0  0  0  0  0  0  0  0  0  0  0  0
    5.4655   -2.9513  -11.9213 C   0  0  0  0  0  0  0  0  0  0  0  0
    4.4637   -2.6584  -10.9945 C   0  0  0  0  0  0  0  0  0  0  0  0
  4  5  2  0  0  0
  5  6  1  0  0  0
  5  3  1  0  0  0
  3  2  1  0  0  0
  2  1  1  0  0  0
  1  8  1  0  0  0
  8  9  1  0  0  0
  9 10  2  0  0  0
 10 11  1  0  0  0
 11 12  2  0  0  0
 12 13  1  0  0  0
 13 14  2  0  0  0
 14  9  1  0  0  0
  6  7  1  0  0  0
M  END
> <minimizedAffinity>
-5.24678

$$$$
bridge_LYS48_LEU50_carboxylic_acid_butylene_phenyl


 14 14  0  0  0  0  0  0  0  0999 V2000
    3.6261   -1.6206   -9.6410 C   0  0  0  0  0  0  0  0  0  0  0  0
    4.4339   -1.2481  -10.8870 C   0  0  0  0  0  0  0  0  0  0  0  0
    4.9843   -2.4603  -11.6372 C   0  0  0  0  0  0  0  0  0  0  0  0
    3.8434   -1.6615  -13.6500 O   0  0  0  0  0  0  0  0  0  0  0  0
    4.6206   -2.4201  -13.0974 C   0  0  0  0  0  0  0  0  0  0  0  0
    5.2635   -3.3739  -13.7999 O   0  0  0  0  0  0  0  0  0  0  0  0
    5.8595   -3.9530  -13.3670 H   0  0  0  0  0  0  0  0  0  0  0  0
    3.0051   -3.0179   -9.7182 C   0  0  0  0  0  0  0  0  0  0  0  0
    1.6876   -3.0796   -8.9856 C   0  0  0  0  0  0  0  0  0  0  0  0
    0.5540   -3.6206   -9.6066 C   0  0  0  0  0  0  0  0  0  0  0  0
   -0.6685   -3.6623   -8.9341 C   0  0  0  0  0  0  0  0  0  0  0  0
   -0.7701   -3.1602   -7.6381 C   0  0  0  0  0  0  0  0  0  0  0  0
    0.3498   -2.6140   -7.0140 C   0  0  0  0  0  0  0  0  0  0  0  0
    1.5731   -2.5713   -7.6848 C   0  0  0  0  0  0  0  0  0  0  0  0
  4  5  2  0  0  0
  5  6  1  0  0  0
  5  3  1  0  0  0
  3  2  1  0  0  0
  2  1  1  0  0  0
  1  8  1  0  0  0
  8  9  1  0  0  0
  9 10  2  0  0  0
 10 11  1  0  0  0
 11 12  2  0  0  0
 12 13  1  0  0  0
 13 14  2  0  0  0
 14  9  1  0  0  0
  6  7  1  0  0  0
M  END
> <minimizedAffinity>
-5.19495

$$$$
