bridge_LYS48_LEU50_carboxylic_acid_butylene_isopropyl


 11 10  0  0  0  0  0  0  0  0999 V2000
   -0.1352   -4.0733   -8.7224 C   0  0  0  0  0  0  0  0  0  0  0  0
    0.5001   -3.6650  -10.0557 C   0  0  0  0  0  0  0  0  0  0  0  0
    1.2492   -2.3284   -9.9906 C   0  0  0  0  0  0  0  0  0  0  0  0
    2.7414   -1.0614   -8.4174 C   0  0  0  0  0  0  0  0  0  0  0  0
    2.5939   -2.3450   -9.2397 C   0  0  0  0  0  0  0  0  0  0  0  0
    3.7879   -2.4934  -10.1831 C   0  0  0  0  0  0  0  0  0  0  0  0
   -0.8658   -2.9123   -8.0468 C   0  0  0  0  0  0  0  0  0  0  0  0
   -0.7735   -2.9545   -6.5444 C   0  0  0  0  0  0  0  0  0  0  0  0
   -1.5081   -3.5413   -5.7693 O   0  0  0  0  0  0  0  0  0  0  0  0
    0.2512   -2.2096   -6.0840 O   0  0  0  0  0  0  0  0  0  0  0  0
    0.8119   -1.7611   -6.6860 H   0  0  0  0  0  0  0  0  0  0  0  0
  4  5  1  0  0  0
  5  6  1  0  0  0
  5  3  1  0  0  0
  3  2  1  0  0  0
  2  1  1  0  0  0
  1  7  1  0  0  0
  7  8  1  0  0  0
  8  9  2  0  0  0
  8 10  1  0  0  0
 10 11  1  0  0  0
M  END
> <minimizedAffinity>
-5.57573

$$$$
bridge_LYS48_LEU50_carboxylic_acid_butylene_isopropyl


 11 10  0  0  0  0  0  0  0  0999 V2000
    1.5117   -3.5004   -8.1425 C   0  0  0  0  0  0  0  0  0  0  0  0
    2.4518   -2.3677   -8.5680 C   0  0  0  0  0  0  0  0  0  0  0  0
    3.0431   -2.5596   -9.9699 C   0  0  0  0  0  0  0  0  0  0  0  0
    1.9329   -0.3734  -10.5129 C   0  0  0  0  0  0  0  0  0  0  0  0
    2.4148   -1.7081  -11.0891 C   0  0  0  0  0  0  0  0  0  0  0  0
    1.2530   -2.4202  -11.7825 C   0  0  0  0  0  0  0  0  0  0  0  0
    0.0459   -3.0652   -8.1286 C   0  0  0  0  0  0  0  0  0  0  0  0
   -0.5171   -2.9410   -6.7375 C   0  0  0  0  0  0  0  0  0  0  0  0
   -1.5474   -3.4271   -6.3050 O   0  0  0  0  0  0  0  0  0  0  0  0
    0.2551   -2.1646   -5.9517 O   0  0  0  0  0  0  0  0  0  0  0  0
    1.0460   -1.7942   -6.2912 H   0  0  0  0  0  0  0  0  0  0  0  0
  4  5  1  0  0  0
  5  6  1  0  0  0
  5  3  1  0  0  0
  3  2  1  0  0  0
  2  1  1  0  0  0
  1  7  1  0  0  0
  7  8  1  0  0  0
  8  9  2  0  0  0
  8 10  1  0  0  0
 10 11  1  0  0  0
M  END
> <minimizedAffinity>
-5.00382

$$$$
bridge_LYS48_LEU50_carboxylic_acid_butylene_isopropyl


 11 10  0  0  0  0  0  0  0  0999 V2000
    1.9698   -2.3377   -8.0241 C   0  0  0  0  0  0  0  0  0  0  0  0
    2.4512   -1.8156   -9.3818 C   0  0  0  0  0  0  0  0  0  0  0  0
    3.5542   -2.6761  -10.0102 C   0  0  0  0  0  0  0  0  0  0  0  0
    3.1836   -1.9424  -12.3833 C   0  0  0  0  0  0  0  0  0  0  0  0
    4.2246   -2.0979  -11.2707 C   0  0  0  0  0  0  0  0  0  0  0  0
    5.3831   -2.9642  -11.7656 C   0  0  0  0  0  0  0  0  0  0  0  0
    0.7082   -3.1933   -8.1442 C   0  0  0  0  0  0  0  0  0  0  0  0
   -0.3458   -2.8317   -7.1313 C   0  0  0  0  0  0  0  0  0  0  0  0
   -1.5527   -2.9661   -7.2321 O   0  0  0  0  0  0  0  0  0  0  0  0
    0.1905   -2.2771   -6.0261 O   0  0  0  0  0  0  0  0  0  0  0  0
    1.1194   -2.1770   -5.9557 H   0  0  0  0  0  0  0  0  0  0  0  0
  4  5  1  0  0  0
  5  6  1  0  0  0
  5  3  1  0  0  0
  3  2  1  0  0  0
  2  1  1  0  0  0
  1  7  1  0  0  0
  7  8  1  0  0  0
  8  9  2  0  0  0
  8 10  1  0  0  0
 10 11  1  0  0  0
M  END
> <minimizedAffinity>
-4.73349

$$$$
bridge_LYS48_LEU50_carboxylic_acid_butylene_isopropyl


 11 10  0  0  0  0  0  0  0  0999 V2000
    3.0728   -1.8476   -9.4358 C   0  0  0  0  0  0  0  0  0  0  0  0
    2.3848   -3.1789   -9.1161 C   0  0  0  0  0  0  0  0  0  0  0  0
    1.5121   -3.1276   -7.8561 C   0  0  0  0  0  0  0  0  0  0  0  0
   -0.2680   -3.8495   -9.4738 C   0  0  0  0  0  0  0  0  0  0  0  0
    0.0963   -3.7188   -7.9920 C   0  0  0  0  0  0  0  0  0  0  0  0
   -0.9592   -2.8778   -7.2735 C   0  0  0  0  0  0  0  0  0  0  0  0
    2.7077   -0.7497   -8.4361 C   0  0  0  0  0  0  0  0  0  0  0  0
    3.7568    0.3258   -8.3353 C   0  0  0  0  0  0  0  0  0  0  0  0
    4.7308    0.3499   -7.6034 O   0  0  0  0  0  0  0  0  0  0  0  0
    3.4992    1.3567   -9.1645 O   0  0  0  0  0  0  0  0  0  0  0  0
    2.7483    1.3313   -9.7244 H   0  0  0  0  0  0  0  0  0  0  0  0
  4  5  1  0  0  0
  5  6  1  0  0  0
  5  3  1  0  0  0
  3  2  1  0  0  0
  2  1  1  0  0  0
  1  7  1  0  0  0
  7  8  1  0  0  0
  8  9  2  0  0  0
  8 10  1  0  0  0
 10 11  1  0  0  0
M  END
> <minimizedAffinity>
-4.70718

$$$$
bridge_LYS48_LEU50_carboxylic_acid_butylene_isopropyl


 11 10  0  0  0  0  0  0  0  0999 V2000
    2.8225   -2.3034   -9.8573 C   0  0  0  0  0  0  0  0  0  0  0  0
    1.8471   -1.9678   -8.7243 C   0  0  0  0  0  0  0  0  0  0  0  0
    1.5049   -3.1711   -7.8372 C   0  0  0  0  0  0  0  0  0  0  0  0
   -0.3497   -3.8313   -9.3966 C   0  0  0  0  0  0  0  0  0  0  0  0
    0.0553   -3.6842   -7.9270 C   0  0  0  0  0  0  0  0  0  0  0  0
   -0.9345   -2.7669   -7.2083 C   0  0  0  0  0  0  0  0  0  0  0  0
    2.7135   -1.3251  -11.0274 C   0  0  0  0  0  0  0  0  0  0  0  0
    2.0131   -1.9146  -12.2230 C   0  0  0  0  0  0  0  0  0  0  0  0
    2.5190   -2.3550  -13.2403 O   0  0  0  0  0  0  0  0  0  0  0  0
    0.6729   -1.8900  -12.0814 O   0  0  0  0  0  0  0  0  0  0  0  0
    0.2909   -1.5499  -11.2963 H   0  0  0  0  0  0  0  0  0  0  0  0
  4  5  1  0  0  0
  5  6  1  0  0  0
  5  3  1  0  0  0
  3  2  1  0  0  0
  2  1  1  0  0  0
  1  7  1  0  0  0
  7  8  1  0  0  0
  8  9  2  0  0  0
  8 10  1  0  0  0
 10 11  1  0  0  0
M  END
> <minimizedAffinity>
-4.15566

$$$$
bridge_LYS48_LEU50_carboxylic_acid_butylene_isopropyl


 11 10  0  0  0  0  0  0  0  0999 V2000
    2.4331   -0.3364  -11.1615 C   0  0  0  0  0  0  0  0  0  0  0  0
    1.6128   -1.6255  -11.2761 C   0  0  0  0  0  0  0  0  0  0  0  0
    1.9826   -2.6795  -10.2253 C   0  0  0  0  0  0  0  0  0  0  0  0
    1.6749   -3.1627   -7.7801 C   0  0  0  0  0  0  0  0  0  0  0  0
    0.9504   -2.9054   -9.1046 C   0  0  0  0  0  0  0  0  0  0  0  0
    0.0031   -4.0665   -9.4085 C   0  0  0  0  0  0  0  0  0  0  0  0
    3.6345   -0.4927  -10.2285 C   0  0  0  0  0  0  0  0  0  0  0  0
    3.4694    0.2491   -8.9285 C   0  0  0  0  0  0  0  0  0  0  0  0
    4.0028    0.0070   -7.8600 O   0  0  0  0  0  0  0  0  0  0  0  0
    2.5935    1.2674   -9.0401 O   0  0  0  0  0  0  0  0  0  0  0  0
    2.1872    1.4476   -9.8650 H   0  0  0  0  0  0  0  0  0  0  0  0
  4  5  1  0  0  0
  5  6  1  0  0  0
  5  3  1  0  0  0
  3  2  1  0  0  0
  2  1  1  0  0  0
  1  7  1  0  0  0
  7  8  1  0  0  0
  8  9  2  0  0  0
  8 10  1  0  0  0
 10 11  1  0  0  0
M  END
> <minimizedAffinity>
-3.74404

$$$$
bridge_LYS48_LEU50_carboxylic_acid_butylene_isopropyl


 11 10  0  0  0  0  0  0  0  0999 V2000
    4.4573   -1.6356  -10.1293 C   0  0  0  0  0  0  0  0  0  0  0  0
    3.4661   -2.8039  -10.1111 C   0  0  0  0  0  0  0  0  0  0  0  0
    2.0641   -2.4072   -9.6325 C   0  0  0  0  0  0  0  0  0  0  0  0
    0.1138   -3.9858   -9.5254 C   0  0  0  0  0  0  0  0  0  0  0  0
    1.3288   -3.4461   -8.7650 C   0  0  0  0  0  0  0  0  0  0  0  0
    0.8826   -2.8728   -7.4197 C   0  0  0  0  0  0  0  0  0  0  0  0
    5.0288   -1.3796  -11.5243 C   0  0  0  0  0  0  0  0  0  0  0  0
    6.0101   -2.4354  -11.9602 C   0  0  0  0  0  0  0  0  0  0  0  0
    7.0888   -2.7016  -11.4598 O   0  0  0  0  0  0  0  0  0  0  0  0
    5.5808   -3.0984  -13.0523 O   0  0  0  0  0  0  0  0  0  0  0  0
    4.7502   -2.8883  -13.4316 H   0  0  0  0  0  0  0  0  0  0  0  0
  4  5  1  0  0  0
  5  6  1  0  0  0
  5  3  1  0  0  0
  3  2  1  0  0  0
  2  1  1  0  0  0
  1  7  1  0  0  0
  7  8  1  0  0  0
  8  9  2  0  0  0
  8 10  1  0  0  0
 10 11  1  0  0  0
M  END
> <minimizedAffinity>
-3.63810

$$$$
bridge_LYS48_LEU50_carboxylic_acid_butylene_isopropyl


 11 10  0  0  0  0  0  0  0  0999 V2000
    1.7380   -1.6567   -9.0188 C   0  0  0  0  0  0  0  0  0  0  0  0
    2.8687   -0.6312   -8.8857 C   0  0  0  0  0  0  0  0  0  0  0  0
    2.4642    0.7827   -9.3206 C   0  0  0  0  0  0  0  0  0  0  0  0
    1.4393    1.0428  -11.5986 C   0  0  0  0  0  0  0  0  0  0  0  0
    2.7387    1.1393  -10.7938 C   0  0  0  0  0  0  0  0  0  0  0  0
    3.8036    0.2409  -11.4235 C   0  0  0  0  0  0  0  0  0  0  0  0
    1.6564   -2.5921   -7.8119 C   0  0  0  0  0  0  0  0  0  0  0  0
    0.2681   -2.6898   -7.2369 C   0  0  0  0  0  0  0  0  0  0  0  0
   -0.1164   -2.2994   -6.1485 O   0  0  0  0  0  0  0  0  0  0  0  0
   -0.5788   -3.3187   -8.0759 O   0  0  0  0  0  0  0  0  0  0  0  0
   -0.2760   -3.6161   -8.9113 H   0  0  0  0  0  0  0  0  0  0  0  0
  4  5  1  0  0  0
  5  6  1  0  0  0
  5  3  1  0  0  0
  3  2  1  0  0  0
  2  1  1  0  0  0
  1  7  1  0  0  0
  7  8  1  0  0  0
  8  9  2  0  0  0
  8 10  1  0  0  0
 10 11  1  0  0  0
M  END
> <minimizedAffinity>
-3.55740

$$$$
bridge_LYS48_LEU50_carboxylic_acid_butylene_isopropyl


 11 10  0  0  0  0  0  0  0  0999 V2000
    4.2625   -1.7996  -10.5480 C   0  0  0  0  0  0  0  0  0  0  0  0
    3.3323   -2.8340   -9.9057 C   0  0  0  0  0  0  0  0  0  0  0  0
    1.8475   -2.5830  -10.1964 C   0  0  0  0  0  0  0  0  0  0  0  0
    1.6603   -3.1163   -7.7494 C   0  0  0  0  0  0  0  0  0  0  0  0
    0.8733   -2.8920   -9.0439 C   0  0  0  0  0  0  0  0  0  0  0  0
   -0.0043   -4.1103   -9.3319 C   0  0  0  0  0  0  0  0  0  0  0  0
    4.5912   -0.6455   -9.6003 C   0  0  0  0  0  0  0  0  0  0  0  0
    6.0571   -0.5576   -9.2673 C   0  0  0  0  0  0  0  0  0  0  0  0
    6.9731   -1.1876   -9.7661 O   0  0  0  0  0  0  0  0  0  0  0  0
    6.2938    0.3230   -8.2748 O   0  0  0  0  0  0  0  0  0  0  0  0
    5.5844    0.8039   -7.8960 H   0  0  0  0  0  0  0  0  0  0  0  0
  4  5  1  0  0  0
  5  6  1  0  0  0
  5  3  1  0  0  0
  3  2  1  0  0  0
  2  1  1  0  0  0
  1  7  1  0  0  0
  7  8  1  0  0  0
  8  9  2  0  0  0
  8 10  1  0  0  0
 10 11  1  0  0  0
M  END
> <minimizedAffinity>
-3.52691

$$$$
