fragment_TRP


 11 12  0  0  0  0  0  0  0  0999 V2000
   -0.5452   -3.7583   -8.6002 C   0  0  0  0  0  0  0  0  0  0  0  0
   -0.2209   -4.0985   -9.9122 C   0  0  0  0  0  0  0  0  0  0  0  0
    0.8567   -3.4976  -10.5625 C   0  0  0  0  0  0  0  0  0  0  0  0
    1.5927   -2.5467   -9.8483 C   0  0  0  0  0  0  0  0  0  0  0  0
    2.6884   -1.8085  -10.2371 N   0  0  0  0  0  0  0  0  0  0  0  0
    3.0961   -0.9911   -9.2186 C   0  0  0  0  0  0  0  0  0  0  0  0
    2.2528   -1.2012   -8.1522 C   0  0  0  0  0  0  0  0  0  0  0  0
    1.2925   -2.1849   -8.5331 C   0  0  0  0  0  0  0  0  0  0  0  0
    0.1964   -2.7995   -7.8792 C   0  0  0  0  0  0  0  0  0  0  0  0
   -0.2166   -2.4873   -6.4674 C   0  0  0  0  0  0  0  0  0  0  0  0
    3.1172   -1.8615  -11.1217 H   0  0  0  0  0  0  0  0  0  0  0  0
  1  2  2  0  0  0
  2  3  1  0  0  0
  3  4  2  0  0  0
  4  5  1  0  0  0
  5  6  1  0  0  0
  6  7  2  0  0  0
  7  8  1  0  0  0
  8  9  2  0  0  0
  9 10  1  0  0  0
  9  1  1  0  0  0
  8  4  1  0  0  0
  5 11  1  0  0  0
M  END
> <minimizedAffinity>
-5.51436

$$$$
fragment_TRP


 11 12  0  0  0  0  0  0  0  0999 V2000
    1.1883   -2.3464   -7.6648 C   0  0  0  0  0  0  0  0  0  0  0  0
    0.2638   -3.3582   -7.9172 C   0  0  0  0  0  0  0  0  0  0  0  0
   -0.0253   -3.7549   -9.2226 C   0  0  0  0  0  0  0  0  0  0  0  0
    0.6463   -3.0999  -10.2599 C   0  0  0  0  0  0  0  0  0  0  0  0
    0.5568   -3.2855  -11.6216 N   0  0  0  0  0  0  0  0  0  0  0  0
    1.3962   -2.4247  -12.2745 C   0  0  0  0  0  0  0  0  0  0  0  0
    2.0407   -1.6687  -11.3230 C   0  0  0  0  0  0  0  0  0  0  0  0
    1.5778   -2.0828  -10.0388 C   0  0  0  0  0  0  0  0  0  0  0  0
    1.8661   -1.6853   -8.7101 C   0  0  0  0  0  0  0  0  0  0  0  0
    2.8492   -0.6040   -8.3560 C   0  0  0  0  0  0  0  0  0  0  0  0
   -0.0278   -3.9437  -12.0624 H   0  0  0  0  0  0  0  0  0  0  0  0
  1  2  2  0  0  0
  2  3  1  0  0  0
  3  4  2  0  0  0
  4  5  1  0  0  0
  5  6  1  0  0  0
  6  7  2  0  0  0
  7  8  1  0  0  0
  8  9  2  0  0  0
  9 10  1  0  0  0
  9  1  1  0  0  0
  8  4  1  0  0  0
  5 11  1  0  0  0
M  END
> <minimizedAffinity>
-5.33202

$$$$
fragment_TRP


 11 12  0  0  0  0  0  0  0  0999 V2000
   -0.8391   -3.7199   -8.0868 C   0  0  0  0  0  0  0  0  0  0  0  0
   -0.6222   -2.9161   -6.9693 C   0  0  0  0  0  0  0  0  0  0  0  0
    0.4996   -2.0915   -6.8870 C   0  0  0  0  0  0  0  0  0  0  0  0
    1.3909   -2.1048   -7.9648 C   0  0  0  0  0  0  0  0  0  0  0  0
    2.5609   -1.4019   -8.1479 N   0  0  0  0  0  0  0  0  0  0  0  0
    3.1218   -1.7194   -9.3547 C   0  0  0  0  0  0  0  0  0  0  0  0
    2.3041   -2.6422   -9.9647 C   0  0  0  0  0  0  0  0  0  0  0  0
    1.2007   -2.8990   -9.0979 C   0  0  0  0  0  0  0  0  0  0  0  0
    0.0591   -3.7341   -9.1742 C   0  0  0  0  0  0  0  0  0  0  0  0
   -0.2454   -4.6287  -10.3438 C   0  0  0  0  0  0  0  0  0  0  0  0
    2.9397   -0.7622   -7.5024 H   0  0  0  0  0  0  0  0  0  0  0  0
  1  2  2  0  0  0
  2  3  1  0  0  0
  3  4  2  0  0  0
  4  5  1  0  0  0
  5  6  1  0  0  0
  6  7  2  0  0  0
  7  8  1  0  0  0
  8  9  2  0  0  0
  9 10  1  0  0  0
  9  1  1  0  0  0
  8  4  1  0  0  0
  5 11  1  0  0  0
M  END
> <minimizedAffinity>
-5.02498

$$$$
fragment_TRP


 11 12  0  0  0  0  0  0  0  0999 V2000
    2.4665   -1.7490  -10.5280 C   0  0  0  0  0  0  0  0  0  0  0  0
    3.0196   -1.1062   -9.4220 C   0  0  0  0  0  0  0  0  0  0  0  0
    2.4649   -1.2614   -8.1518 C   0  0  0  0  0  0  0  0  0  0  0  0
    1.3390   -2.0830   -8.0353 C   0  0  0  0  0  0  0  0  0  0  0  0
    0.5993   -2.4091   -6.9204 N   0  0  0  0  0  0  0  0  0  0  0  0
   -0.4261   -3.2489   -7.2597 C   0  0  0  0  0  0  0  0  0  0  0  0
   -0.3514   -3.4717   -8.6151 C   0  0  0  0  0  0  0  0  0  0  0  0
    0.7622   -2.7402   -9.1244 C   0  0  0  0  0  0  0  0  0  0  0  0
    1.3312   -2.5776  -10.4115 C   0  0  0  0  0  0  0  0  0  0  0  0
    0.7941   -3.2362  -11.6520 C   0  0  0  0  0  0  0  0  0  0  0  0
    0.7822   -2.0843   -6.0092 H   0  0  0  0  0  0  0  0  0  0  0  0
  1  2  2  0  0  0
  2  3  1  0  0  0
  3  4  2  0  0  0
  4  5  1  0  0  0
  5  6  1  0  0  0
  6  7  2  0  0  0
  7  8  1  0  0  0
  8  9  2  0  0  0
  9 10  1  0  0  0
  9  1  1  0  0  0
  8  4  1  0  0  0
  5 11  1  0  0  0
M  END
> <minimizedAffinity>
-4.87212

$$$$
fragment_TRP


 11 12  0  0  0  0  0  0  0  0999 V2000
    0.8193   -3.1054   -8.1079 C   0  0  0  0  0  0  0  0  0  0  0  0
    1.6459   -2.0667   -7.6837 C   0  0  0  0  0  0  0  0  0  0  0  0
    2.2835   -1.2366   -8.6054 C   0  0  0  0  0  0  0  0  0  0  0  0
    2.0602   -1.4883   -9.9630 C   0  0  0  0  0  0  0  0  0  0  0  0
    2.5536   -0.8368  -11.0715 N   0  0  0  0  0  0  0  0  0  0  0  0
    2.0757   -1.4164  -12.2149 C   0  0  0  0  0  0  0  0  0  0  0  0
    1.2597   -2.4599  -11.8439 C   0  0  0  0  0  0  0  0  0  0  0  0
    1.2377   -2.5210  -10.4189 C   0  0  0  0  0  0  0  0  0  0  0  0
    0.5935   -3.3600   -9.4767 C   0  0  0  0  0  0  0  0  0  0  0  0
   -0.3120   -4.4996   -9.8539 C   0  0  0  0  0  0  0  0  0  0  0  0
    3.1632   -0.0642  -11.0449 H   0  0  0  0  0  0  0  0  0  0  0  0
  1  2  2  0  0  0
  2  3  1  0  0  0
  3  4  2  0  0  0
  4  5  1  0  0  0
  5  6  1  0  0  0
  6  7  2  0  0  0
  7  8  1  0  0  0
  8  9  2  0  0  0
  9 10  1  0  0  0
  9  1  1  0  0  0
  8  4  1  0  0  0
  5 11  1  0  0  0
M  END
> <minimizedAffinity>
-4.85036

$$$$
fragment_TRP


 11 12  0  0  0  0  0  0  0  0999 V2000
    0.5818   -3.4660   -9.8715 C   0  0  0  0  0  0  0  0  0  0  0  0
    0.6418   -3.4687   -8.4792 C   0  0  0  0  0  0  0  0  0  0  0  0
    1.3575   -2.4891   -7.7912 C   0  0  0  0  0  0  0  0  0  0  0  0
    2.0073   -1.5113   -8.5512 C   0  0  0  0  0  0  0  0  0  0  0  0
    2.7729   -0.4425   -8.1410 N   0  0  0  0  0  0  0  0  0  0  0  0
    3.2195    0.2651   -9.2234 C   0  0  0  0  0  0  0  0  0  0  0  0
    2.7369   -0.3530  -10.3537 C   0  0  0  0  0  0  0  0  0  0  0  0
    1.9656   -1.4820   -9.9470 C   0  0  0  0  0  0  0  0  0  0  0  0
    1.2367   -2.4804  -10.6388 C   0  0  0  0  0  0  0  0  0  0  0  0
    1.1240   -2.5460  -12.1368 C   0  0  0  0  0  0  0  0  0  0  0  0
    2.9707   -0.2195   -7.2027 H   0  0  0  0  0  0  0  0  0  0  0  0
  1  2  2  0  0  0
  2  3  1  0  0  0
  3  4  2  0  0  0
  4  5  1  0  0  0
  5  6  1  0  0  0
  6  7  2  0  0  0
  7  8  1  0  0  0
  8  9  2  0  0  0
  9 10  1  0  0  0
  9  1  1  0  0  0
  8  4  1  0  0  0
  5 11  1  0  0  0
M  END
> <minimizedAffinity>
-4.83321

$$$$
fragment_TRP


 11 12  0  0  0  0  0  0  0  0999 V2000
    2.9315   -2.9504   -9.7885 C   0  0  0  0  0  0  0  0  0  0  0  0
    2.0550   -2.5474   -8.7828 C   0  0  0  0  0  0  0  0  0  0  0  0
    2.2129   -1.3167   -8.1459 C   0  0  0  0  0  0  0  0  0  0  0  0
    3.2795   -0.5101   -8.5555 C   0  0  0  0  0  0  0  0  0  0  0  0
    3.6656    0.7333   -8.1066 N   0  0  0  0  0  0  0  0  0  0  0  0
    4.7720    1.1617   -8.7878 C   0  0  0  0  0  0  0  0  0  0  0  0
    5.1098    0.1823   -9.6927 C   0  0  0  0  0  0  0  0  0  0  0  0
    4.1742   -0.8863   -9.5600 C   0  0  0  0  0  0  0  0  0  0  0  0
    4.0075   -2.1378  -10.2023 C   0  0  0  0  0  0  0  0  0  0  0  0
    4.9092   -2.6436  -11.2942 C   0  0  0  0  0  0  0  0  0  0  0  0
    3.2103    1.2413   -7.3967 H   0  0  0  0  0  0  0  0  0  0  0  0
  1  2  2  0  0  0
  2  3  1  0  0  0
  3  4  2  0  0  0
  4  5  1  0  0  0
  5  6  1  0  0  0
  6  7  2  0  0  0
  7  8  1  0  0  0
  8  9  2  0  0  0
  9 10  1  0  0  0
  9  1  1  0  0  0
  8  4  1  0  0  0
  5 11  1  0  0  0
M  END
> <minimizedAffinity>
-4.62463

$$$$
fragment_TRP


 11 12  0  0  0  0  0  0  0  0999 V2000
    4.9717   -0.7125  -10.1284 C   0  0  0  0  0  0  0  0  0  0  0  0
    4.5743    0.2169   -9.1690 C   0  0  0  0  0  0  0  0  0  0  0  0
    3.4723   -0.0263   -8.3494 C   0  0  0  0  0  0  0  0  0  0  0  0
    2.7881   -1.2328   -8.5292 C   0  0  0  0  0  0  0  0  0  0  0  0
    1.6837   -1.7248   -7.8698 N   0  0  0  0  0  0  0  0  0  0  0  0
    1.3415   -2.9526   -8.3671 C   0  0  0  0  0  0  0  0  0  0  0  0
    2.2368   -3.2629   -9.3643 C   0  0  0  0  0  0  0  0  0  0  0  0
    3.1621   -2.1836   -9.4816 C   0  0  0  0  0  0  0  0  0  0  0  0
    4.2824   -1.9295  -10.3104 C   0  0  0  0  0  0  0  0  0  0  0  0
    4.7734   -2.8803  -11.3667 C   0  0  0  0  0  0  0  0  0  0  0  0
    1.2082   -1.2595   -7.1441 H   0  0  0  0  0  0  0  0  0  0  0  0
  1  2  2  0  0  0
  2  3  1  0  0  0
  3  4  2  0  0  0
  4  5  1  0  0  0
  5  6  1  0  0  0
  6  7  2  0  0  0
  7  8  1  0  0  0
  8  9  2  0  0  0
  9 10  1  0  0  0
  9  1  1  0  0  0
  8  4  1  0  0  0
  5 11  1  0  0  0
M  END
> <minimizedAffinity>
-4.36174

$$$$
fragment_TRP


 11 12  0  0  0  0  0  0  0  0999 V2000
    0.8449   -3.1004  -11.5050 C   0  0  0  0  0  0  0  0  0  0  0  0
    1.4799   -2.2143  -12.3731 C   0  0  0  0  0  0  0  0  0  0  0  0
    2.2867   -1.1871  -11.8842 C   0  0  0  0  0  0  0  0  0  0  0  0
    2.4309   -1.0844  -10.4969 C   0  0  0  0  0  0  0  0  0  0  0  0
    3.1557   -0.1807   -9.7520 N   0  0  0  0  0  0  0  0  0  0  0  0
    3.0166   -0.4459   -8.4170 C   0  0  0  0  0  0  0  0  0  0  0  0
    2.1894   -1.5379   -8.2926 C   0  0  0  0  0  0  0  0  0  0  0  0
    1.8077   -1.9569   -9.6017 C   0  0  0  0  0  0  0  0  0  0  0  0
    0.9896   -2.9977  -10.1057 C   0  0  0  0  0  0  0  0  0  0  0  0
    0.2720   -3.9924   -9.2359 C   0  0  0  0  0  0  0  0  0  0  0  0
    3.6966    0.5516  -10.1266 H   0  0  0  0  0  0  0  0  0  0  0  0
  1  2  2  0  0  0
  2  3  1  0  0  0
  3  4  2  0  0  0
  4  5  1  0  0  0
  5  6  1  0  0  0
  6  7  2  0  0  0
  7  8  1  0  0  0
  8  9  2  0  0  0
  9 10  1  0  0  0
  9  1  1  0  0  0
  8  4  1  0  0  0
  5 11  1  0  0  0
M  END
> <minimizedAffinity>
-4.22676

$$$$
