bridge_LYS48_LEU50_carboxylic_acid_pentylene_isopropyl


 12 11  0  0  0  0  0  0  0  0999 V2000
    0.2819   -3.8126  -10.1022 C   0  0  0  0  0  0  0  0  0  0  0  0
    1.3146   -2.7924  -10.5912 C   0  0  0  0  0  0  0  0  0  0  0  0
    2.5482   -2.7785   -9.6823 C   0  0  0  0  0  0  0  0  0  0  0  0
    3.1052   -0.5843  -10.8579 C   0  0  0  0  0  0  0  0  0  0  0  0
    3.2911   -1.4313   -9.5990 C   0  0  0  0  0  0  0  0  0  0  0  0
    2.9079   -0.6304   -8.3546 C   0  0  0  0  0  0  0  0  0  0  0  0
    0.2485   -3.8785   -8.5720 C   0  0  0  0  0  0  0  0  0  0  0  0
   -0.8657   -3.0198   -7.9745 C   0  0  0  0  0  0  0  0  0  0  0  0
   -0.8229   -2.9661   -6.4703 C   0  0  0  0  0  0  0  0  0  0  0  0
   -1.5760   -3.5127   -5.6838 O   0  0  0  0  0  0  0  0  0  0  0  0
    0.2145   -2.2301   -6.0242 O   0  0  0  0  0  0  0  0  0  0  0  0
    0.7896   -1.8126   -6.6349 H   0  0  0  0  0  0  0  0  0  0  0  0
  4  5  1  0  0  0
  5  6  1  0  0  0
  5  3  1  0  0  0
  3  2  1  0  0  0
  2  1  1  0  0  0
  1  7  1  0  0  0
  7  8  1  0  0  0
  8  9  1  0  0  0
  9 10  2  0  0  0
  9 11  1  0  0  0
 11 12  1  0  0  0
M  END
> <minimizedAffinity>
-5.43514

$$$$
bridge_LYS48_LEU50_carboxylic_acid_pentylene_isopropyl


 12 11  0  0  0  0  0  0  0  0999 V2000
    2.7125   -2.9809   -9.2436 C   0  0  0  0  0  0  0  0  0  0  0  0
    3.3752   -1.6786   -9.7036 C   0  0  0  0  0  0  0  0  0  0  0  0
    3.0814   -0.5359   -8.7259 C   0  0  0  0  0  0  0  0  0  0  0  0
    3.5451    1.8398   -9.5306 C   0  0  0  0  0  0  0  0  0  0  0  0
    2.4965    0.7407   -9.3598 C   0  0  0  0  0  0  0  0  0  0  0  0
    1.7928    0.4623  -10.6879 C   0  0  0  0  0  0  0  0  0  0  0  0
    1.8570   -2.7564   -7.9926 C   0  0  0  0  0  0  0  0  0  0  0  0
    0.4207   -3.2471   -8.1713 C   0  0  0  0  0  0  0  0  0  0  0  0
   -0.4764   -2.8681   -7.0229 C   0  0  0  0  0  0  0  0  0  0  0  0
   -1.6786   -3.0419   -6.9281 O   0  0  0  0  0  0  0  0  0  0  0  0
    0.2140   -2.3016   -6.0133 O   0  0  0  0  0  0  0  0  0  0  0  0
    1.1384   -2.1710   -6.0932 H   0  0  0  0  0  0  0  0  0  0  0  0
  4  5  1  0  0  0
  5  6  1  0  0  0
  5  3  1  0  0  0
  3  2  1  0  0  0
  2  1  1  0  0  0
  1  7  1  0  0  0
  7  8  1  0  0  0
  8  9  1  0  0  0
  9 10  2  0  0  0
  9 11  1  0  0  0
 11 12  1  0  0  0
M  END
> <minimizedAffinity>
-4.97697

$$$$
bridge_LYS48_LEU50_carboxylic_acid_pentylene_isopropyl


 12 11  0  0  0  0  0  0  0  0999 V2000
    1.5712   -2.7416   -9.5568 C   0  0  0  0  0  0  0  0  0  0  0  0
    3.0998   -2.8025   -9.6347 C   0  0  0  0  0  0  0  0  0  0  0  0
    3.6485   -1.7065  -10.5544 C   0  0  0  0  0  0  0  0  0  0  0  0
    4.4790   -1.0700  -12.8807 C   0  0  0  0  0  0  0  0  0  0  0  0
    4.2657   -2.2023  -11.8762 C   0  0  0  0  0  0  0  0  0  0  0  0
    5.5663   -2.9754  -11.6582 C   0  0  0  0  0  0  0  0  0  0  0  0
    1.0416   -3.5750   -8.3854 C   0  0  0  0  0  0  0  0  0  0  0  0
   -0.4164   -3.2577   -8.0548 C   0  0  0  0  0  0  0  0  0  0  0  0
   -0.6471   -3.0208   -6.5857 C   0  0  0  0  0  0  0  0  0  0  0  0
   -1.5191   -3.4993   -5.8821 O   0  0  0  0  0  0  0  0  0  0  0  0
    0.2782   -2.1936   -6.0600 O   0  0  0  0  0  0  0  0  0  0  0  0
    0.9459   -1.8293   -6.6072 H   0  0  0  0  0  0  0  0  0  0  0  0
  4  5  1  0  0  0
  5  6  1  0  0  0
  5  3  1  0  0  0
  3  2  1  0  0  0
  2  1  1  0  0  0
  1  7  1  0  0  0
  7  8  1  0  0  0
  8  9  1  0  0  0
  9 10  2  0  0  0
  9 11  1  0  0  0
 11 12  1  0  0  0
M  END
> <minimizedAffinity>
-4.95602

$$$$
bridge_LYS48_LEU50_carboxylic_acid_pentylene_isopropyl


 12 11  0  0  0  0  0  0  0  0999 V2000
    2.9857   -2.8785   -9.6180 C   0  0  0  0  0  0  0  0  0  0  0  0
    2.4219   -2.1051   -8.4219 C   0  0  0  0  0  0  0  0  0  0  0  0
    1.4774   -2.9831   -7.5941 C   0  0  0  0  0  0  0  0  0  0  0  0
   -0.3640   -3.8818   -9.1133 C   0  0  0  0  0  0  0  0  0  0  0  0
   -0.0097   -2.9077   -7.9898 C   0  0  0  0  0  0  0  0  0  0  0  0
   -0.9416   -3.1084   -6.7948 C   0  0  0  0  0  0  0  0  0  0  0  0
    3.6386   -1.9335  -10.6319 C   0  0  0  0  0  0  0  0  0  0  0  0
    2.9397   -1.9616  -11.9908 C   0  0  0  0  0  0  0  0  0  0  0  0
    1.5504   -1.3823  -11.9485 C   0  0  0  0  0  0  0  0  0  0  0  0
    1.2332   -0.2209  -11.7615 O   0  0  0  0  0  0  0  0  0  0  0  0
    0.6095   -2.3190  -12.1810 O   0  0  0  0  0  0  0  0  0  0  0  0
    0.8608   -3.2102  -12.3240 H   0  0  0  0  0  0  0  0  0  0  0  0
  4  5  1  0  0  0
  5  6  1  0  0  0
  5  3  1  0  0  0
  3  2  1  0  0  0
  2  1  1  0  0  0
  1  7  1  0  0  0
  7  8  1  0  0  0
  8  9  1  0  0  0
  9 10  2  0  0  0
  9 11  1  0  0  0
 11 12  1  0  0  0
M  END
> <minimizedAffinity>
-4.82547

$$$$
bridge_LYS48_LEU50_carboxylic_acid_pentylene_isopropyl


 12 11  0  0  0  0  0  0  0  0999 V2000
    2.3811   -1.4585   -9.5626 C   0  0  0  0  0  0  0  0  0  0  0  0
    2.5820   -2.8967   -9.0748 C   0  0  0  0  0  0  0  0  0  0  0  0
    1.5988   -3.2394   -7.9506 C   0  0  0  0  0  0  0  0  0  0  0  0
   -0.3974   -3.9876   -9.3514 C   0  0  0  0  0  0  0  0  0  0  0  0
    0.1112   -3.0176   -8.2849 C   0  0  0  0  0  0  0  0  0  0  0  0
   -0.7796   -3.0728   -7.0439 C   0  0  0  0  0  0  0  0  0  0  0  0
    2.8651   -0.4461   -8.5196 C   0  0  0  0  0  0  0  0  0  0  0  0
    4.3306   -0.0598   -8.7166 C   0  0  0  0  0  0  0  0  0  0  0  0
    4.8206    0.9271   -7.6903 C   0  0  0  0  0  0  0  0  0  0  0  0
    5.6769    0.7549   -6.8408 O   0  0  0  0  0  0  0  0  0  0  0  0
    4.2096    2.1223   -7.8124 O   0  0  0  0  0  0  0  0  0  0  0  0
    3.5519    2.2475   -8.4681 H   0  0  0  0  0  0  0  0  0  0  0  0
  4  5  1  0  0  0
  5  6  1  0  0  0
  5  3  1  0  0  0
  3  2  1  0  0  0
  2  1  1  0  0  0
  1  7  1  0  0  0
  7  8  1  0  0  0
  8  9  1  0  0  0
  9 10  2  0  0  0
  9 11  1  0  0  0
 11 12  1  0  0  0
M  END
> <minimizedAffinity>
-4.82268

$$$$
bridge_LYS48_LEU50_carboxylic_acid_pentylene_isopropyl


 12 11  0  0  0  0  0  0  0  0999 V2000
    2.5228   -2.0434   -8.8099 C   0  0  0  0  0  0  0  0  0  0  0  0
    2.9797   -2.7920  -10.0658 C   0  0  0  0  0  0  0  0  0  0  0  0
    3.8762   -1.9075  -10.9386 C   0  0  0  0  0  0  0  0  0  0  0  0
    6.2118   -2.5551  -11.7338 C   0  0  0  0  0  0  0  0  0  0  0  0
    5.3788   -1.9547  -10.6013 C   0  0  0  0  0  0  0  0  0  0  0  0
    5.9295   -0.5862  -10.2005 C   0  0  0  0  0  0  0  0  0  0  0  0
    1.8604   -2.9938   -7.8074 C   0  0  0  0  0  0  0  0  0  0  0  0
    0.3854   -3.2403   -8.1229 C   0  0  0  0  0  0  0  0  0  0  0  0
   -0.5288   -2.8621   -6.9877 C   0  0  0  0  0  0  0  0  0  0  0  0
   -1.7214   -3.0897   -6.8845 O   0  0  0  0  0  0  0  0  0  0  0  0
    0.1335   -2.2258   -6.0012 O   0  0  0  0  0  0  0  0  0  0  0  0
    1.0506   -2.0541   -6.0876 H   0  0  0  0  0  0  0  0  0  0  0  0
  4  5  1  0  0  0
  5  6  1  0  0  0
  5  3  1  0  0  0
  3  2  1  0  0  0
  2  1  1  0  0  0
  1  7  1  0  0  0
  7  8  1  0  0  0
  8  9  1  0  0  0
  9 10  2  0  0  0
  9 11  1  0  0  0
 11 12  1  0  0  0
M  END
> <minimizedAffinity>
-4.76321

$$$$
bridge_LYS48_LEU50_carboxylic_acid_pentylene_isopropyl


 12 11  0  0  0  0  0  0  0  0999 V2000
    2.9019   -2.7793   -9.8466 C   0  0  0  0  0  0  0  0  0  0  0  0
    3.3372   -1.3635   -9.4562 C   0  0  0  0  0  0  0  0  0  0  0  0
    4.7754   -1.0857   -9.9064 C   0  0  0  0  0  0  0  0  0  0  0  0
    4.6167    0.7001   -8.0918 C   0  0  0  0  0  0  0  0  0  0  0  0
    5.4600    0.1142   -9.2243 C   0  0  0  0  0  0  0  0  0  0  0  0
    6.8650   -0.2227   -8.7251 C   0  0  0  0  0  0  0  0  0  0  0  0
    1.9307   -3.3651   -8.8167 C   0  0  0  0  0  0  0  0  0  0  0  0
    1.4946   -2.3364   -7.7739 C   0  0  0  0  0  0  0  0  0  0  0  0
    0.1422   -2.6360   -7.1834 C   0  0  0  0  0  0  0  0  0  0  0  0
   -0.8018   -3.1841   -7.7247 O   0  0  0  0  0  0  0  0  0  0  0  0
    0.0595   -2.2451   -5.8961 O   0  0  0  0  0  0  0  0  0  0  0  0
    0.7896   -1.8242   -5.4865 H   0  0  0  0  0  0  0  0  0  0  0  0
  4  5  1  0  0  0
  5  6  1  0  0  0
  5  3  1  0  0  0
  3  2  1  0  0  0
  2  1  1  0  0  0
  1  7  1  0  0  0
  7  8  1  0  0  0
  8  9  1  0  0  0
  9 10  2  0  0  0
  9 11  1  0  0  0
 11 12  1  0  0  0
M  END
> <minimizedAffinity>
-4.66084

$$$$
bridge_LYS48_LEU50_carboxylic_acid_pentylene_isopropyl


 12 11  0  0  0  0  0  0  0  0999 V2000
    3.5727   -1.9700   -9.8726 C   0  0  0  0  0  0  0  0  0  0  0  0
    2.3190   -2.8486   -9.9259 C   0  0  0  0  0  0  0  0  0  0  0  0
    1.9521   -3.3698   -8.5324 C   0  0  0  0  0  0  0  0  0  0  0  0
   -0.3540   -2.8863   -7.5553 C   0  0  0  0  0  0  0  0  0  0  0  0
    0.4993   -3.8570   -8.3716 C   0  0  0  0  0  0  0  0  0  0  0  0
   -0.1673   -4.1554   -9.7145 C   0  0  0  0  0  0  0  0  0  0  0  0
    3.2128   -0.5054   -9.6030 C   0  0  0  0  0  0  0  0  0  0  0  0
    1.7789   -0.1712  -10.0128 C   0  0  0  0  0  0  0  0  0  0  0  0
    1.6765    1.1082  -10.8003 C   0  0  0  0  0  0  0  0  0  0  0  0
    0.7809    1.4501  -11.5523 O   0  0  0  0  0  0  0  0  0  0  0  0
    2.7232    1.9250  -10.5680 O   0  0  0  0  0  0  0  0  0  0  0  0
    3.4083    1.6554   -9.9884 H   0  0  0  0  0  0  0  0  0  0  0  0
  4  5  1  0  0  0
  5  6  1  0  0  0
  5  3  1  0  0  0
  3  2  1  0  0  0
  2  1  1  0  0  0
  1  7  1  0  0  0
  7  8  1  0  0  0
  8  9  1  0  0  0
  9 10  2  0  0  0
  9 11  1  0  0  0
 11 12  1  0  0  0
M  END
> <minimizedAffinity>
-4.34337

$$$$
bridge_LYS48_LEU50_carboxylic_acid_pentylene_isopropyl


 12 11  0  0  0  0  0  0  0  0999 V2000
    2.5221   -1.6445   -9.6970 C   0  0  0  0  0  0  0  0  0  0  0  0
    1.8849   -1.7797   -8.3105 C   0  0  0  0  0  0  0  0  0  0  0  0
    1.6369   -3.2505   -7.9595 C   0  0  0  0  0  0  0  0  0  0  0  0
   -0.7923   -2.7575   -7.3571 C   0  0  0  0  0  0  0  0  0  0  0  0
    0.1710   -3.7144   -8.0593 C   0  0  0  0  0  0  0  0  0  0  0  0
   -0.2685   -3.9502   -9.5043 C   0  0  0  0  0  0  0  0  0  0  0  0
    3.6144   -2.6972   -9.9108 C   0  0  0  0  0  0  0  0  0  0  0  0
    4.4884   -2.3935  -11.1272 C   0  0  0  0  0  0  0  0  0  0  0  0
    5.3493   -1.1722  -10.9414 C   0  0  0  0  0  0  0  0  0  0  0  0
    5.3318   -0.1426  -11.5927 O   0  0  0  0  0  0  0  0  0  0  0  0
    6.1893   -1.3054   -9.8958 O   0  0  0  0  0  0  0  0  0  0  0  0
    6.1973   -2.1001   -9.3995 H   0  0  0  0  0  0  0  0  0  0  0  0
  4  5  1  0  0  0
  5  6  1  0  0  0
  5  3  1  0  0  0
  3  2  1  0  0  0
  2  1  1  0  0  0
  1  7  1  0  0  0
  7  8  1  0  0  0
  8  9  1  0  0  0
  9 10  2  0  0  0
  9 11  1  0  0  0
 11 12  1  0  0  0
M  END
> <minimizedAffinity>
-4.25565

$$$$
